  # total energy =   -19.50975482 
CRSYTAL
PRIMVEC
     6.7020160000000004    0.0000000000000000    0.0000000000000000
     0.0000000000000000    6.7020160000000004    0.0000000000000000
     0.0000000000000000    0.0000000000000000    6.7020160000000004
PRESSURE
-0.126796 -0.044257 0.08757 0.227903 -0.12503 -0.045706
PRIMCOORD
4 1
H       6.51137      3.86546      5.54458         0.181487     -0.337779      0.281664
H       1.24252      3.93455      6.28844        -0.211279     -0.190400      0.166311
H       6.55992      3.95010      0.44211        -0.130226      0.173465      0.537225
N       0.31525      3.49074      6.36799         0.159874      0.354805     -0.985707
