  # total energy =   -19.33743609 
CRSYTAL
PRIMVEC
     6.7020160000000004    0.0000000000000000    0.0000000000000000
     0.0000000000000000    6.7020160000000004    0.0000000000000000
     0.0000000000000000    0.0000000000000000    6.7020160000000004
PRESSURE
-0.3803 -0.062003 0.446743 0.429709 0.037815 -0.157659
PRIMCOORD
4 1
H       0.38243      3.97126      5.32457         0.432335     -0.591935     -1.517627
H       6.30351      5.55151      5.21189         0.482581     -0.586894     -0.751226
H       5.94747      4.44576      6.33986         0.862802      0.425439     -0.358075
N       0.03447      4.79567      5.74225        -1.777891      0.752254      2.627559
