  # total energy =   -19.21680190 
CRSYTAL
PRIMVEC
     6.7020160000000004    0.0000000000000000    0.0000000000000000
     0.0000000000000000    6.7020160000000004    0.0000000000000000
     0.0000000000000000    0.0000000000000000    6.7020160000000004
PRESSURE
0.556171 0.195172 1.68672 -0.391176 0.204071 0.082769
PRIMCOORD
4 1
H       1.60818      2.05913      0.22037         0.193823      0.372797     -0.564190
H       6.65788      1.56272      0.26047        -1.021490      0.060475     -0.459222
H       0.97799      1.45571      1.60300         0.045153     -0.577519      2.956704
N       0.84014      1.62709      0.67773         0.782912      0.144428     -1.931252
