  # total energy =   -19.40250458 
CRSYTAL
PRIMVEC
     6.7020160000000004    0.0000000000000000    0.0000000000000000
     0.0000000000000000    6.7020160000000004    0.0000000000000000
     0.0000000000000000    0.0000000000000000    6.7020160000000004
PRESSURE
0.7054 0.65295 0.126104 -0.428729 -0.334066 -0.035984
PRIMCOORD
4 1
H       0.35339      4.13994      5.12495         0.492151     -0.568548      0.494323
H       6.25160      5.38418      4.97017        -0.413970      0.993088     -0.016063
H       5.96358      4.49560      6.22988        -1.279763     -0.783789      1.064065
N       0.01164      4.89239      5.72844         1.201091      0.359419     -1.542504
