  # total energy =   -19.44051214 
CRSYTAL
PRIMVEC
     6.7020160000000004    0.0000000000000000    0.0000000000000000
     0.0000000000000000    6.7020160000000004    0.0000000000000000
     0.0000000000000000    0.0000000000000000    6.7020160000000004
PRESSURE
0.256124 0.479771 -0.112732 0.272601 0.256708 0.18227
PRIMCOORD
4 1
H       0.93318      2.89774      6.57574         0.005041      0.692607      0.372678
H       6.68709      1.59981      0.02736        -0.633582     -0.487867     -0.479547
H       0.52666      2.19452      1.41520         0.231368      0.712702     -0.182640
N       0.76334      2.07843      0.43201         0.396948     -0.916382      0.289619
