  # total energy =   -19.25658220 
CRSYTAL
PRIMVEC
     6.7020160000000004    0.0000000000000000    0.0000000000000000
     0.0000000000000000    6.7020160000000004    0.0000000000000000
     0.0000000000000000    0.0000000000000000    6.7020160000000004
PRESSURE
-0.543796 -0.415116 -0.72434 -0.193934 0.364528 -0.316118
PRIMCOORD
4 1
H       6.57053      3.45317      5.34365         0.128719      0.428398     -0.076994
H       0.88768      4.77118      6.05356        -0.744229     -0.762301     -0.464589
H       6.31150      4.04404      0.28517         0.851281     -0.097457     -1.659503
N       0.20246      4.00694      6.11691        -0.235423      0.431646      2.200543
