  # total energy =   -19.22943717 
CRSYTAL
PRIMVEC
     6.7020160000000004    0.0000000000000000    0.0000000000000000
     0.0000000000000000    6.7020160000000004    0.0000000000000000
     0.0000000000000000    0.0000000000000000    6.7020160000000004
PRESSURE
0.017562 -1.46158 0.522725 0.040686 -0.117229 -0.342592
PRIMCOORD
4 1
H       0.78826      3.21899      6.43967        -0.362827     -1.323231      0.372782
H       0.38192      1.43470      6.58975         0.310947      1.734183      0.485680
H       0.56659      2.49454      1.26047        -0.306828      0.046038      1.467497
N       0.65720      2.35725      0.29764         0.359005     -0.455776     -2.325871
