  # total energy =   -19.40649008 
CRSYTAL
PRIMVEC
     6.7020160000000004    0.0000000000000000    0.0000000000000000
     0.0000000000000000    6.7020160000000004    0.0000000000000000
     0.0000000000000000    0.0000000000000000    6.7020160000000004
PRESSURE
0.257243 -0.201225 0.566343 -0.251884 -0.127562 0.091013
PRIMCOORD
4 1
H       0.00631      3.36051      5.94935        -0.488458      0.190447     -0.174106
H       0.90415      2.04158      6.43069        -0.472360      0.506124      0.525137
H       0.09701      3.01786      0.88644        -0.839184     -0.213762      1.244695
N       0.52042      2.95534      0.00533         1.798896     -0.483404     -1.596367
