  # total energy =   -19.37991408 
CRSYTAL
PRIMVEC
     6.7020160000000004    0.0000000000000000    0.0000000000000000
     0.0000000000000000    6.7020160000000004    0.0000000000000000
     0.0000000000000000    0.0000000000000000    6.7020160000000004
PRESSURE
-0.788432 -0.83514 -0.052071 0.405468 0.207371 0.135563
PRIMCOORD
4 1
H       0.38888      3.97608      5.27809        -0.198829      0.589502     -0.624190
H       6.26707      5.54549      5.14901         0.794523     -1.157377     -0.049198
H       5.92310      4.44552      6.32871         1.311016      0.603089     -0.735204
N       0.03221      4.81822      5.73896        -1.906299     -0.035688      1.408153
