  # total energy =   -19.30292250 
CRSYTAL
PRIMVEC
     6.7020160000000004    0.0000000000000000    0.0000000000000000
     0.0000000000000000    6.7020160000000004    0.0000000000000000
     0.0000000000000000    0.0000000000000000    6.7020160000000004
PRESSURE
0.259661 1.12911 0.227451 0.153773 -0.119571 -0.239771
PRIMCOORD
4 1
H       0.38144      3.91792      5.22458         0.148725     -1.649319     -0.564510
H       0.01657      5.46288      5.33500        -0.523926      1.123181     -0.108984
H       6.08978      4.41883      6.54975        -0.533894     -0.210901      0.030838
N       0.04913      4.60899      5.83089         0.909690      0.737110      0.643651
