  # total energy =   -19.50042541 
CRSYTAL
PRIMVEC
     6.7020160000000004    0.0000000000000000    0.0000000000000000
     0.0000000000000000    6.7020160000000004    0.0000000000000000
     0.0000000000000000    0.0000000000000000    6.7020160000000004
PRESSURE
0.089978 -0.021004 0.515104 0.376413 0.010098 -0.007614
PRIMCOORD
4 1
H       0.92964      2.92157      6.63749        -0.075969     -0.258886      0.421440
H       6.63708      1.63229      0.04808        -0.155872     -0.176865     -0.285431
H       0.52633      2.23098      1.38810        -0.086992      0.534254      1.149708
N       0.77601      2.03961      0.44513         0.319641     -0.098611     -1.286205
