  # total energy =   -19.49442675 
CRSYTAL
PRIMVEC
     6.7020160000000004    0.0000000000000000    0.0000000000000000
     0.0000000000000000    6.7020160000000004    0.0000000000000000
     0.0000000000000000    0.0000000000000000    6.7020160000000004
PRESSURE
0.152916 0.042836 0.524106 0.3968 0.04539 0.028996
PRIMCOORD
4 1
H       0.93016      2.91874      6.62960        -0.071630     -0.169366      0.443993
H       6.64400      1.63000      0.04724        -0.301184     -0.259106     -0.360581
H       0.52636      2.22521      1.38850        -0.075883      0.586368      1.149971
N       0.77453      2.04384      0.44390         0.449701     -0.157801     -1.234041
