  # total energy =   -19.35607802 
CRSYTAL
PRIMVEC
     6.7020160000000004    0.0000000000000000    0.0000000000000000
     0.0000000000000000    6.7020160000000004    0.0000000000000000
     0.0000000000000000    0.0000000000000000    6.7020160000000004
PRESSURE
-0.732034 -0.753737 -1.38633 0.19675 0.639383 -0.189058
PRIMCOORD
4 1
H       6.54873      3.70173      5.17842         0.067736      0.196608      1.165641
H       0.40452      5.14732      5.66423        -0.459764     -1.365523      1.070159
H       6.06505      4.24929      0.04780         1.555913      0.009276     -1.670184
N       0.19535      4.16955      6.05584        -1.162891      1.158622     -0.565569
