  # total energy =   -19.45337613 
CRSYTAL
PRIMVEC
     6.7020160000000004    0.0000000000000000    0.0000000000000000
     0.0000000000000000    6.7020160000000004    0.0000000000000000
     0.0000000000000000    0.0000000000000000    6.7020160000000004
PRESSURE
-0.568162 -0.964453 -0.441459 -0.016371 0.084056 0.394233
PRIMCOORD
4 1
H       0.38870      4.01012      5.19274        -0.598158      1.378100      0.576926
H       6.23965      5.49645      5.05528         0.748344     -0.875741      0.546508
H       5.92909      4.46473      6.28776         0.629608      0.229136     -0.275624
N       0.02438      4.85218      5.73653        -0.778985     -0.731391     -0.848563
