  # total energy =   -19.32340296 
CRSYTAL
PRIMVEC
     6.7020160000000004    0.0000000000000000    0.0000000000000000
     0.0000000000000000    6.7020160000000004    0.0000000000000000
     0.0000000000000000    0.0000000000000000    6.7020160000000004
PRESSURE
-0.066369 -1.16616 0.070318 -0.215113 0.033025 0.491658
PRIMCOORD
4 1
H       0.43132      3.85173      5.29797        -0.742103      1.557174      0.144049
H       6.52680      5.58398      5.33039         0.271019     -1.015410     -0.295885
H       6.04488      4.44584      6.47055        -0.240637     -0.147325      0.060288
N       0.03879      4.68965      5.78580         0.711817     -0.393699      0.091520
