  # total energy =   -19.38011726 
CRSYTAL
PRIMVEC
     6.7020160000000004    0.0000000000000000    0.0000000000000000
     0.0000000000000000    6.7020160000000004    0.0000000000000000
     0.0000000000000000    0.0000000000000000    6.7020160000000004
PRESSURE
0.000208 -0.569733 0.611515 -0.106596 -0.52453 -0.203702
PRIMCOORD
4 1
H       6.63737      3.25091      6.06538         0.522869      0.185598      0.000611
H       0.54345      1.83792      6.48696         0.612182      1.094371      0.086030
H       6.66269      2.79173      0.83227        -0.581689      0.309809      1.538190
N       0.59653      2.86427      0.06562        -0.553044     -1.590248     -1.624885
