  # total energy =   -19.39617662 
CRSYTAL
PRIMVEC
     6.7020160000000004    0.0000000000000000    0.0000000000000000
     0.0000000000000000    6.7020160000000004    0.0000000000000000
     0.0000000000000000    0.0000000000000000    6.7020160000000004
PRESSURE
0.306573 0.066674 1.21824 0.074238 0.190808 -0.050217
PRIMCOORD
4 1
H       1.40361      2.44971      0.15628        -0.271859      0.091518      0.033027
H       6.61639      1.64450      0.20182        -0.810480      0.171399     -0.344111
H       0.82996      1.78713      1.56095        -0.084559      0.257345      2.262538
N       0.81943      1.74820      0.59478         1.166549     -0.520709     -1.951217
