  # total energy =   -19.25710839 
CRSYTAL
PRIMVEC
     6.7020160000000004    0.0000000000000000    0.0000000000000000
     0.0000000000000000    6.7020160000000004    0.0000000000000000
     0.0000000000000000    0.0000000000000000    6.7020160000000004
PRESSURE
0.689826 0.730204 1.43488 -0.836972 -0.041886 -0.041246
PRIMCOORD
4 1
H       1.70683      1.27638      0.25702         0.437002      0.088774     -1.130252
H       0.03860      1.57350      0.48341        -1.123780     -0.022126     -0.694972
H       1.00194      0.75324      1.56946        -0.322305     -2.114993      2.457745
N       0.92383      1.37314      0.85218         1.009138      2.046932     -0.632390
