  # total energy =   -19.36790078 
CRSYTAL
PRIMVEC
     6.7020160000000004    0.0000000000000000    0.0000000000000000
     0.0000000000000000    6.7020160000000004    0.0000000000000000
     0.0000000000000000    0.0000000000000000    6.7020160000000004
PRESSURE
0.760935 1.02593 0.761184 -0.700524 -0.215844 -0.170533
PRIMCOORD
4 1
H       1.51576      0.94276      0.16083         0.999442     -0.111716     -0.576911
H       0.09984      1.38266      0.49147        -0.995694      0.735845     -0.246424
H       0.81054      0.45376      1.43540        -0.147602     -2.195523      1.793677
N       0.98934      1.27650      0.95055         0.143389      1.570279     -0.970078
