  # total energy =   -19.44331806 
CRSYTAL
PRIMVEC
     6.7020160000000004    0.0000000000000000    0.0000000000000000
     0.0000000000000000    6.7020160000000004    0.0000000000000000
     0.0000000000000000    0.0000000000000000    6.7020160000000004
PRESSURE
0.153506 -0.360966 0.411954 -0.318596 -0.363352 -0.060789
PRIMCOORD
4 1
H       6.64370      3.68857      5.21865         0.502769      0.827529     -0.115793
H       0.09803      5.35175      5.58730         0.231699     -0.086206     -0.667494
H       5.98538      4.34718      6.46561        -0.441416     -0.055840      0.845487
N       0.14752      4.39967      5.94585        -0.293233     -0.684936     -0.062610
