  # total energy =   -19.40219392 
CRSYTAL
PRIMVEC
     6.7020160000000004    0.0000000000000000    0.0000000000000000
     0.0000000000000000    6.7020160000000004    0.0000000000000000
     0.0000000000000000    0.0000000000000000    6.7020160000000004
PRESSURE
-0.002395 0.443791 -0.670811 0.105239 0.188875 0.02662
PRIMCOORD
4 1
H       0.93478      2.89768      6.55238        -0.005079      0.910048      0.332154
H       6.69891      1.57088      0.00435        -0.026422     -0.042256     -0.067398
H       0.53081      2.19219      1.43322         0.336757      0.697100     -1.071301
N       0.75734      2.09800      0.42485        -0.305925     -1.565277      0.806789
