  # total energy =   -19.19815492 
CRSYTAL
PRIMVEC
     6.7020160000000004    0.0000000000000000    0.0000000000000000
     0.0000000000000000    6.7020160000000004    0.0000000000000000
     0.0000000000000000    0.0000000000000000    6.7020160000000004
PRESSURE
0.716298 1.0344 0.374114 -0.351874 -0.479948 0.101108
PRIMCOORD
4 1
H       0.33740      3.88535      5.17054        -0.450550     -0.777896      0.575817
H       0.08406      5.41268      5.34887        -0.587199      1.579229      0.015481
H       6.11509      4.40084      6.54025        -2.199488     -0.569901      1.615448
N       0.05792      4.57134      5.85820         3.235805     -0.230646     -2.206521
