  # total energy =   -19.36123665 
CRSYTAL
PRIMVEC
     6.7020160000000004    0.0000000000000000    0.0000000000000000
     0.0000000000000000    6.7020160000000004    0.0000000000000000
     0.0000000000000000    0.0000000000000000    6.7020160000000004
PRESSURE
0.640843 0.629497 0.560056 -0.552467 -0.210425 -0.25386
PRIMCOORD
4 1
H       1.49277      0.89286      0.15918         0.980963      0.056916     -0.459961
H       0.10284      1.36519      0.49977        -0.819089      0.876525     -0.144704
H       0.78347      0.40307      1.41427         0.033335     -1.296868      1.383244
N       0.99883      1.26256      0.96345        -0.194778      0.363280     -0.778529
