  # total energy =   -19.46055816 
CRSYTAL
PRIMVEC
     6.7020160000000004    0.0000000000000000    0.0000000000000000
     0.0000000000000000    6.7020160000000004    0.0000000000000000
     0.0000000000000000    0.0000000000000000    6.7020160000000004
PRESSURE
-0.573153 -0.51305 -0.147984 -0.176562 -0.181309 -0.171434
PRIMCOORD
4 1
H       0.92204      2.93845      0.02900         0.022360     -0.722050     -0.147741
H       6.57065      1.65763      0.05493         1.153042      0.399273      0.402054
H       0.52430      2.30195      1.41093         0.137728     -0.502860     -0.182947
N       0.79154      1.99469      0.45586        -1.313529      0.825620     -0.070689
