  # total energy =   -19.11419257 
CRSYTAL
PRIMVEC
     6.7020160000000004    0.0000000000000000    0.0000000000000000
     0.0000000000000000    6.7020160000000004    0.0000000000000000
     0.0000000000000000    0.0000000000000000    6.7020160000000004
PRESSURE
-0.337456 -1.28971 -0.441629 -0.16672 0.625547 -0.009526
PRIMCOORD
4 1
H       6.66164      3.99687      5.68520        -0.538271     -1.170827     -0.070327
H       1.29042      3.80585      6.28513        -0.531648     -1.147715      0.818000
H       6.65747      4.00616      0.52302         0.878081     -1.694014     -0.971140
N       0.33389      3.34165      6.42927         0.191230      4.012285      0.223387
