  # total energy =   -19.20968827 
CRSYTAL
PRIMVEC
     6.7020160000000004    0.0000000000000000    0.0000000000000000
     0.0000000000000000    6.7020160000000004    0.0000000000000000
     0.0000000000000000    0.0000000000000000    6.7020160000000004
PRESSURE
0.979479 0.217836 0.970118 -0.389937 0.234982 -0.038002
PRIMCOORD
4 1
H       1.62500      1.76772      0.15608         1.031904      0.026532     -0.069271
H       6.69201      1.59774      0.35269        -1.199955      0.068701     -0.472174
H       0.92080      1.15094      1.64471         0.646088     -0.765697      1.795978
N       0.88181      1.51661      0.75263        -0.478523      0.671920     -1.255491
