  # total energy =   -19.44766550 
CRSYTAL
PRIMVEC
     6.7020160000000004    0.0000000000000000    0.0000000000000000
     0.0000000000000000    6.7020160000000004    0.0000000000000000
     0.0000000000000000    0.0000000000000000    6.7020160000000004
PRESSURE
-0.824305 -0.096676 -0.823997 -0.33692 0.153953 0.0264
PRIMCOORD
4 1
H       6.45804      3.77781      5.51024         0.474708      0.165677      0.343912
H       1.26315      3.95108      6.32028        -0.933537     -0.152271     -0.262294
H       6.51890      3.94837      0.49424         0.776921     -0.582970     -1.479541
N       0.30956      3.53587      6.34326        -0.317472      0.569433      1.398627
