  # total energy =   -19.43605156 
CRSYTAL
PRIMVEC
     6.7020160000000004    0.0000000000000000    0.0000000000000000
     0.0000000000000000    6.7020160000000004    0.0000000000000000
     0.0000000000000000    0.0000000000000000    6.7020160000000004
PRESSURE
-0.065755 0.400065 -0.918719 -0.266493 0.314666 -0.064735
PRIMCOORD
4 1
H       6.68712      3.27809      5.96750        -0.179673      0.413426      0.413832
H       0.73843      1.97853      6.39646         0.076628     -0.651123      0.644382
H       0.01228      2.95153      0.93301         0.530809     -0.450392     -1.307883
N       0.55548      2.91337      0.03342        -0.427685      0.689681      0.250418
