  # total energy =   -19.22277007 
CRSYTAL
PRIMVEC
     6.7020160000000004    0.0000000000000000    0.0000000000000000
     0.0000000000000000    6.7020160000000004    0.0000000000000000
     0.0000000000000000    0.0000000000000000    6.7020160000000004
PRESSURE
0.630154 0.22381 1.05541 -0.330461 -0.039371 0.168158
PRIMCOORD
4 1
H       1.59836      2.12051      0.25204         0.264780      0.592676     -1.033698
H       6.65321      1.55696      0.24695        -1.224013      0.093284     -0.538155
H       1.00203      1.52799      1.61501        -0.495468     -0.352600      1.418746
N       0.83049      1.65074      0.65819         1.455030     -0.335103      0.153110
