  # total energy =   -19.28133680 
CRSYTAL
PRIMVEC
     6.7020160000000004    0.0000000000000000    0.0000000000000000
     0.0000000000000000    6.7020160000000004    0.0000000000000000
     0.0000000000000000    0.0000000000000000    6.7020160000000004
PRESSURE
0.398859 0.378037 0.992208 -0.490204 -0.086103 0.048264
PRIMCOORD
4 1
H       1.72811      1.34241      0.26750         0.161152      0.166058     -0.993797
H       0.01947      1.59582      0.47401        -0.766916     -0.090263     -0.544479
H       1.02648      0.80476      1.60271        -0.448596     -1.105863      1.431388
N       0.91386      1.39262      0.83410         1.053470      1.029696      0.106909
