  # total energy =   -19.25476002 
CRSYTAL
PRIMVEC
     6.7020160000000004    0.0000000000000000    0.0000000000000000
     0.0000000000000000    6.7020160000000004    0.0000000000000000
     0.0000000000000000    0.0000000000000000    6.7020160000000004
PRESSURE
0.483728 -0.291995 1.28017 0.069688 -0.039005 0.378881
PRIMCOORD
4 1
H       1.00296      2.81579      0.17710         0.735350     -0.471967     -0.718961
H       6.57828      1.79612      0.16439        -0.795704     -0.759936     -0.593272
H       0.59042      2.21193      1.41570        -0.115296     -0.336253      2.180988
N       0.82250      1.84662      0.51845         0.174904      1.568180     -0.869054
