  # total energy =   -19.36191961 
CRSYTAL
PRIMVEC
     6.7020160000000004    0.0000000000000000    0.0000000000000000
     0.0000000000000000    6.7020160000000004    0.0000000000000000
     0.0000000000000000    0.0000000000000000    6.7020160000000004
PRESSURE
-0.721735 -0.633164 -0.399698 -0.50317 -0.185651 -0.083476
PRIMCOORD
4 1
H       0.91790      2.93650      0.07840         0.157022     -0.701800     -0.527931
H       6.55051      1.67613      0.06310         1.387742      0.397914      0.524565
H       0.52446      2.33525      1.42559         0.273236     -1.094390     -0.772457
N       0.79861      1.97158      0.46106        -1.818401      1.398564      0.775669
