  # total energy =   -19.36556289 
CRSYTAL
PRIMVEC
     6.7020160000000004    0.0000000000000000    0.0000000000000000
     0.0000000000000000    6.7020160000000004    0.0000000000000000
     0.0000000000000000    0.0000000000000000    6.7020160000000004
PRESSURE
0.090923 -0.239503 0.135183 -0.24575 -0.206323 -0.121394
PRIMCOORD
4 1
H       6.57164      3.50899      5.31285         0.110275      0.591119     -0.086417
H       0.70579      4.94493      5.95786        -0.180864     -0.148960     -0.610128
H       6.27140      4.13261      0.16417        -0.405928     -0.038121      0.145471
N       0.19073      4.08463      6.08134         0.476657     -0.404507      0.551960
