  # total energy =   -19.18715554 
CRSYTAL
PRIMVEC
     6.7020160000000004    0.0000000000000000    0.0000000000000000
     0.0000000000000000    6.7020160000000004    0.0000000000000000
     0.0000000000000000    0.0000000000000000    6.7020160000000004
PRESSURE
-0.609941 -0.126813 -1.55989 0.528854 0.033772 -0.098009
PRIMCOORD
4 1
H       1.62804      1.91782      0.12969        -0.334252     -0.338930      0.942141
H       6.63356      1.58290      0.28194         0.954977     -0.032468      0.574994
H       0.92305      1.24851      1.72456         0.279706      0.775548     -2.103088
N       0.86701      1.56788      0.71784        -0.899185     -0.404520      0.585079
