  # total energy =   -19.25427312 
CRSYTAL
PRIMVEC
     6.7020160000000004    0.0000000000000000    0.0000000000000000
     0.0000000000000000    6.7020160000000004    0.0000000000000000
     0.0000000000000000    0.0000000000000000    6.7020160000000004
PRESSURE
0.626191 0.04238 1.08591 -0.44819 -0.586674 0.279849
PRIMCOORD
4 1
H       0.40880      3.89033      5.33974        -0.003176      0.533697     -0.893119
H       6.45194      5.56260      5.33009         0.092322      0.433994     -1.363660
H       6.04698      4.45888      6.39282        -1.683351     -0.664415      1.654551
N       0.03560      4.72402      5.76904         1.595209     -0.304697      0.601903
