  # total energy =   -19.47040603 
CRSYTAL
PRIMVEC
     6.7020160000000004    0.0000000000000000    0.0000000000000000
     0.0000000000000000    6.7020160000000004    0.0000000000000000
     0.0000000000000000    0.0000000000000000    6.7020160000000004
PRESSURE
-0.001648 0.150209 -0.844423 0.132851 0.198894 0.108993
PRIMCOORD
4 1
H       1.23770      2.58885      0.09676         0.170636      0.238119      0.526788
H       6.58152      1.72889      0.18391         0.019018     -0.151418      0.020943
H       0.69087      1.91391      1.59989         0.444845      0.293904     -1.281060
N       0.82725      1.78326      0.56566        -0.635121     -0.379979      0.734088
