  # total energy =   -19.43174121 
CRSYTAL
PRIMVEC
     6.7020160000000004    0.0000000000000000    0.0000000000000000
     0.0000000000000000    6.7020160000000004    0.0000000000000000
     0.0000000000000000    0.0000000000000000    6.7020160000000004
PRESSURE
-0.425003 -0.312978 0.13723 0.267054 -0.096437 0.047559
PRIMCOORD
4 1
H       0.05090      3.29530      6.20174         0.742267     -0.553049      0.147070
H       0.44092      1.73117      6.53860         0.363910      0.264621     -0.426457
H       0.00250      2.70190      0.95208         0.489859      0.280708      0.277554
N       0.64025      2.70148      0.13575        -1.596553      0.007879      0.002756
