  # total energy =   -19.33734870 
CRSYTAL
PRIMVEC
     6.7020160000000004    0.0000000000000000    0.0000000000000000
     0.0000000000000000    6.7020160000000004    0.0000000000000000
     0.0000000000000000    0.0000000000000000    6.7020160000000004
PRESSURE
0.045256 -0.253259 0.449208 0.114998 -0.095327 -0.128449
PRIMCOORD
4 1
H       0.91532      3.03632      6.49738        -0.271158     -0.284879      0.375504
H       0.20492      1.46810      6.60980        -0.018916      0.360870      0.309563
H       0.61481      2.33851      1.33727        -0.354710      0.225398      1.266246
N       0.69967      2.22449      0.36857         0.644657     -0.302376     -1.951715
