  # total energy =   -19.29806467 
CRSYTAL
PRIMVEC
     6.7020160000000004    0.0000000000000000    0.0000000000000000
     0.0000000000000000    6.7020160000000004    0.0000000000000000
     0.0000000000000000    0.0000000000000000    6.7020160000000004
PRESSURE
0.099354 0.663314 -0.103239 0.060218 0.112533 0.079438
PRIMCOORD
4 1
H       0.65809      3.24739      6.37739        -0.180152      0.508530     -0.560387
H       0.48367      1.53990      6.60023        -0.326542     -0.940357     -0.720037
H       0.48297      2.56044      1.25225        -0.006575      0.073470     -0.744243
N       0.63783      2.44291      0.24894         0.512961      0.359223      2.023344
