  # total energy =   -19.32257625 
CRSYTAL
PRIMVEC
     6.7020160000000004    0.0000000000000000    0.0000000000000000
     0.0000000000000000    6.7020160000000004    0.0000000000000000
     0.0000000000000000    0.0000000000000000    6.7020160000000004
PRESSURE
0.15376 0.134938 0.16511 0.064605 0.062593 0.088413
PRIMCOORD
4 1
H       6.48417      3.51976      5.41024        -0.107892      0.062154     -0.221923
H       1.17615      4.15002      6.18102         0.309530      0.351530      0.119060
H       6.41811      3.83498      0.38731         0.060545      0.237694      0.176548
N       0.26182      3.76446      6.25327        -0.263485     -0.650669     -0.072941
