  # total energy =   -19.32187328 
CRSYTAL
PRIMVEC
     6.7020160000000004    0.0000000000000000    0.0000000000000000
     0.0000000000000000    6.7020160000000004    0.0000000000000000
     0.0000000000000000    0.0000000000000000    6.7020160000000004
PRESSURE
-0.158964 -1.25796 -0.083022 -0.158329 0.134354 0.478424
PRIMCOORD
4 1
H       0.43288      3.84993      5.29234        -0.789146      1.574159      0.233111
H       6.53705      5.58529      5.32907         0.262878     -1.168296     -0.164814
H       6.04297      4.44343      6.48195        -0.009801     -0.068745     -0.204610
N       0.03937      4.68514      5.78798         0.536220     -0.336391      0.136026
