  # total energy =   -19.21541903 
CRSYTAL
PRIMVEC
     6.7020160000000004    0.0000000000000000    0.0000000000000000
     0.0000000000000000    6.7020160000000004    0.0000000000000000
     0.0000000000000000    0.0000000000000000    6.7020160000000004
PRESSURE
0.693234 0.227405 1.2726 -0.353517 0.027502 0.171855
PRIMCOORD
4 1
H       1.59947      2.10985      0.24832         0.306626      0.590978     -1.001687
H       6.65589      1.55779      0.24999        -1.300179      0.075694     -0.579732
H       0.99854      1.51710      1.60967        -0.380689     -0.405197      1.850169
N       0.83191      1.64696      0.66140         1.374443     -0.263029     -0.268298
