  # total energy =   -19.44845709 
CRSYTAL
PRIMVEC
     6.7020160000000004    0.0000000000000000    0.0000000000000000
     0.0000000000000000    6.7020160000000004    0.0000000000000000
     0.0000000000000000    0.0000000000000000    6.7020160000000004
PRESSURE
0.66667 0.227065 0.675626 0.124275 0.277577 0.134368
PRIMCOORD
4 1
H       1.32516      2.50629      0.12574         0.169960      0.450552      0.148894
H       6.61821      1.68400      0.20129        -1.292281     -0.050147     -0.563529
H       0.76379      1.83837      1.56626         0.107093      0.427245      1.156342
N       0.82211      1.76513      0.58206         1.014982     -0.827829     -0.739888
