  # total energy =   -19.51090858 
CRSYTAL
PRIMVEC
     6.7020160000000004    0.0000000000000000    0.0000000000000000
     0.0000000000000000    6.7020160000000004    0.0000000000000000
     0.0000000000000000    0.0000000000000000    6.7020160000000004
PRESSURE
-0.522276 -0.116299 -0.334377 0.011885 -0.002734 -0.023869
PRIMCOORD
4 1
H       6.49285      3.84176      5.53113         0.350956     -0.205684      0.421933
H       1.25548      3.94146      6.29753        -0.684449     -0.263695      0.062016
H       6.54426      3.95259      0.46295         0.302650     -0.205045     -0.333204
N       0.31368      3.50301      6.36084         0.030668      0.674497     -0.150441
