  # total energy =   -19.08485994 
CRSYTAL
PRIMVEC
     6.7020160000000004    0.0000000000000000    0.0000000000000000
     0.0000000000000000    6.7020160000000004    0.0000000000000000
     0.0000000000000000    0.0000000000000000    6.7020160000000004
PRESSURE
-0.739128 -1.64911 -0.668317 -0.052703 -0.070608 -0.374668
PRIMCOORD
4 1
H       1.47173      0.71045      0.15133        -0.027251      1.131642      0.987425
H       0.08432      1.38092      0.55109         1.131272      0.351643      0.677312
H       0.70252      0.17637      1.41419         0.919092      2.597777     -0.241668
N       1.03502      1.18988      1.01382        -2.023185     -4.082546     -1.423645
