  # total energy =   -19.46861278 
CRSYTAL
PRIMVEC
     6.7020160000000004    0.0000000000000000    0.0000000000000000
     0.0000000000000000    6.7020160000000004    0.0000000000000000
     0.0000000000000000    0.0000000000000000    6.7020160000000004
PRESSURE
0.356867 0.050509 -0.121807 -0.416606 -0.262648 0.225069
PRIMCOORD
4 1
H       0.36708      4.08937      5.14090        -0.042153      0.397805      0.762466
H       6.24562      5.42176      4.99616         0.056414      0.333249      0.266815
H       5.95796      4.48922      6.24367        -0.925514     -0.583271      0.827991
N       0.01560      4.87875      5.73243         0.910864     -0.146934     -1.857446
