  # total energy =   -19.17465087 
CRSYTAL
PRIMVEC
     6.7020160000000004    0.0000000000000000    0.0000000000000000
     0.0000000000000000    6.7020160000000004    0.0000000000000000
     0.0000000000000000    0.0000000000000000    6.7020160000000004
PRESSURE
-0.516514 -0.136261 0.616774 0.246065 0.153107 -0.54277
PRIMCOORD
4 1
H       6.64325      3.25124      6.15358         0.245941      0.367653     -0.824703
H       0.44593      1.80729      6.57429         1.006909      0.281563     -0.885142
H       6.60220      2.69192      0.84047         0.857052      0.993013      0.595510
N       0.62226      2.81941      0.08122        -2.110889     -1.641180      1.114381
