  # total energy =   -19.31461425 
CRSYTAL
PRIMVEC
     6.7020160000000004    0.0000000000000000    0.0000000000000000
     0.0000000000000000    6.7020160000000004    0.0000000000000000
     0.0000000000000000    0.0000000000000000    6.7020160000000004
PRESSURE
0.342471 0.157446 0.37802 0.090488 -0.033912 0.130254
PRIMCOORD
4 1
H       6.48819      3.51865      5.41011        -0.167080      0.024103     -0.300434
H       1.16941      4.15484      6.17671         0.516902      0.437043      0.122291
H       6.42150      3.83501      0.37759        -0.197363      0.269250      0.582960
N       0.26066      3.76825      6.25212        -0.153787     -0.729896     -0.404257
