  # total energy =   -19.25563271 
CRSYTAL
PRIMVEC
     6.7020160000000004    0.0000000000000000    0.0000000000000000
     0.0000000000000000    6.7020160000000004    0.0000000000000000
     0.0000000000000000    0.0000000000000000    6.7020160000000004
PRESSURE
-0.695548 -0.05764 -0.931469 0.018443 0.547676 -0.211782
PRIMCOORD
4 1
H       6.55270      3.47483      5.34671        -0.102134      0.178159      0.535951
H       1.11346      4.37971      6.08238        -0.921365     -0.269814      0.504908
H       6.36670      3.88379      0.37518         0.950695      0.175172     -1.393829
N       0.23294      3.86496      6.20357         0.073154     -0.083604      0.354545
