  # total energy =   -19.31870834 
CRSYTAL
PRIMVEC
     6.7020160000000004    0.0000000000000000    0.0000000000000000
     0.0000000000000000    6.7020160000000004    0.0000000000000000
     0.0000000000000000    0.0000000000000000    6.7020160000000004
PRESSURE
1.10493 0.332331 1.12405 0.178836 -0.66998 0.083738
PRIMCOORD
4 1
H       6.43857      3.66813      5.49253         0.059525      0.359649     -0.523793
H       1.20302      3.97031      6.32540         1.568458      0.796217     -0.620682
H       6.53631      3.88244      0.41162        -1.531933      0.784798      2.134984
N       0.29715      3.60849      6.31747        -0.095111     -1.942225     -0.991331
