  # total energy =   -19.22264554 
CRSYTAL
PRIMVEC
     6.7020160000000004    0.0000000000000000    0.0000000000000000
     0.0000000000000000    6.7020160000000004    0.0000000000000000
     0.0000000000000000    0.0000000000000000    6.7020160000000004
PRESSURE
0.569872 0.816227 1.19706 -0.10753 -0.49083 -0.188916
PRIMCOORD
4 1
H       0.38712      3.93911      5.35830         0.769018     -0.992952     -1.854165
H       6.38537      5.54960      5.29968        -0.045342      0.783260     -1.710124
H       6.01401      4.45704      6.35522        -1.043102     -0.386672      1.186773
N       0.03503      4.75531      5.75472         0.320059      0.596530      2.376978
