  # total energy =   -19.28560813 
CRSYTAL
PRIMVEC
     6.7020160000000004    0.0000000000000000    0.0000000000000000
     0.0000000000000000    6.7020160000000004    0.0000000000000000
     0.0000000000000000    0.0000000000000000    6.7020160000000004
PRESSURE
0.06651 0.114891 0.927181 -0.213255 0.14983 -0.029
PRIMCOORD
4 1
H       1.61751      2.02137      0.19082        -0.128279      0.066838      0.001418
H       6.64838      1.56747      0.26415        -0.248976      0.074669     -0.076299
H       0.96099      1.39897      1.62778         0.115474     -0.353058      1.839599
N       0.84760      1.61073      0.68989         0.262608      0.212305     -1.764382
