  # total energy =   -19.29436241 
CRSYTAL
PRIMVEC
     6.7020160000000004    0.0000000000000000    0.0000000000000000
     0.0000000000000000    6.7020160000000004    0.0000000000000000
     0.0000000000000000    0.0000000000000000    6.7020160000000004
PRESSURE
0.272862 0.281411 0.799911 -0.365694 -0.103134 0.082626
PRIMCOORD
4 1
H       1.73195      1.35276      0.26689         0.045712      0.167542     -0.909348
H       0.01463      1.59911      0.47132        -0.613182     -0.125222     -0.479403
H       1.02942      0.80948      1.61169        -0.495821     -0.805470      1.040686
N       0.91250      1.39579      0.83131         1.062181      0.763067      0.347948
