  # total energy =   -19.26347744 
CRSYTAL
PRIMVEC
     6.7020160000000004    0.0000000000000000    0.0000000000000000
     0.0000000000000000    6.7020160000000004    0.0000000000000000
     0.0000000000000000    0.0000000000000000    6.7020160000000004
PRESSURE
-0.343743 -0.210736 0.778037 0.155274 -0.340319 0.300597
PRIMCOORD
4 1
H       6.67151      3.55872      5.82823         0.253956     -0.200188      0.119496
H       1.26004      2.50877      6.46464        -0.933239      0.694438      0.016019
H       0.10019      3.25405      0.79741        -0.634238      0.259455      1.760785
N       0.43695      3.11137      6.60303         1.312235     -0.752969     -1.896983
