  # total energy =   -19.35116182 
CRSYTAL
PRIMVEC
     6.7020160000000004    0.0000000000000000    0.0000000000000000
     0.0000000000000000    6.7020160000000004    0.0000000000000000
     0.0000000000000000    0.0000000000000000    6.7020160000000004
PRESSURE
-0.172968 0.222614 -0.420609 0.349023 0.336625 -0.195793
PRIMCOORD
4 1
H       0.40308      3.90277      5.24157        -0.083191     -0.851218     -0.266667
H       6.67679      5.51113      5.32598        -0.350533     -0.182204      0.266337
H       6.06085      4.42141      6.56150         0.566813      0.103912     -1.111435
N       0.04693      4.62727      5.81845        -0.133247      0.930417      1.112280
