  # total energy =   -19.17999287 
CRSYTAL
PRIMVEC
     6.7020160000000004    0.0000000000000000    0.0000000000000000
     0.0000000000000000    6.7020160000000004    0.0000000000000000
     0.0000000000000000    0.0000000000000000    6.7020160000000004
PRESSURE
-0.723738 0.038387 -0.887854 -0.170836 -0.622661 -0.221335
PRIMCOORD
4 1
H       1.58779      2.23207      0.25463        -0.797348      0.033097     -0.686122
H       6.60610      1.55546      0.21047         0.567333      0.461119      0.355586
H       1.00882      1.61921      1.66944        -1.188787     -0.107024     -1.702751
N       0.82110      1.68397      0.63147         1.417877     -0.386738      2.031980
