  # total energy =   -19.45250801 
CRSYTAL
PRIMVEC
     6.7020160000000004    0.0000000000000000    0.0000000000000000
     0.0000000000000000    6.7020160000000004    0.0000000000000000
     0.0000000000000000    0.0000000000000000    6.7020160000000004
PRESSURE
0.310651 0.423834 0.105616 0.334022 0.243258 0.193506
PRIMCOORD
4 1
H       0.93262      2.90085      6.58577        -0.009208      0.522266      0.411712
H       6.68060      1.60871      0.03411        -0.742507     -0.551241     -0.558891
H       0.52619      2.19830      1.40708         0.157676      0.713154      0.225733
N       0.76562      2.07095      0.43476         0.594283     -0.683209     -0.078758
