  # total energy =   -19.18488954 
CRSYTAL
PRIMVEC
     6.7020160000000004    0.0000000000000000    0.0000000000000000
     0.0000000000000000    6.7020160000000004    0.0000000000000000
     0.0000000000000000    0.0000000000000000    6.7020160000000004
PRESSURE
-0.460897 -0.622296 -0.273096 -0.839916 -0.087402 0.260797
PRIMCOORD
4 1
H       0.91564      2.91355      0.16195         0.521544     -0.385193     -1.178152
H       6.54746      1.72407      0.09443         0.868005     -0.036050      0.276218
H       0.53321      2.36846      1.43242         0.341196     -1.786458     -0.817264
N       0.80945      1.92698      0.47382        -1.731522      2.207253      1.718940
