  # total energy =   -19.12692950 
CRSYTAL
PRIMVEC
     6.7020160000000004    0.0000000000000000    0.0000000000000000
     0.0000000000000000    6.7020160000000004    0.0000000000000000
     0.0000000000000000    0.0000000000000000    6.7020160000000004
PRESSURE
-0.958841 -0.935458 -1.34803 -0.410291 0.587332 -0.624017
PRIMCOORD
4 1
H       6.56378      3.45381      5.32327         0.356636      0.970454      0.451523
H       0.84221      4.86560      6.02809        -1.255302     -1.473569     -0.487193
H       6.26975      4.08055      0.28557         1.457570     -0.141739     -2.497557
N       0.19872      4.03570      6.09992        -0.558909      0.645833      2.532949
