  # total energy =   -19.32119198 
CRSYTAL
PRIMVEC
     6.7020160000000004    0.0000000000000000    0.0000000000000000
     0.0000000000000000    6.7020160000000004    0.0000000000000000
     0.0000000000000000    0.0000000000000000    6.7020160000000004
PRESSURE
-0.288134 -0.777713 -0.059588 -0.201929 -0.192374 -0.208143
PRIMCOORD
4 1
H       1.46926      0.68731      0.19055         0.321199      0.829442      0.161533
H       0.12232      1.41246      0.60301         0.586562      0.362038      0.319218
H       0.71324      0.20012      1.40882         0.420498      1.243900      0.412210
N       1.04310      1.14602      1.02974        -1.327595     -2.434218     -0.892466
