  # total energy =   -19.29382931 
CRSYTAL
PRIMVEC
     6.7020160000000004    0.0000000000000000    0.0000000000000000
     0.0000000000000000    6.7020160000000004    0.0000000000000000
     0.0000000000000000    0.0000000000000000    6.7020160000000004
PRESSURE
-0.492057 0.443974 0.314374 0.092806 -0.205069 0.400041
PRIMCOORD
4 1
H       6.50936      3.78593      5.19728         0.428486     -0.792099     -0.364309
H       0.10545      5.20810      5.60796         0.947469      0.538615     -0.057896
H       5.96599      4.36268      6.49662         0.723594     -0.528469      0.568825
N       0.19470      4.26765      6.01483        -2.098909      0.780943     -0.147606
