  # total energy =   -19.31112037 
CRSYTAL
PRIMVEC
     6.7020160000000004    0.0000000000000000    0.0000000000000000
     0.0000000000000000    6.7020160000000004    0.0000000000000000
     0.0000000000000000    0.0000000000000000    6.7020160000000004
PRESSURE
0.102696 0.199992 0.177438 0.192747 0.049816 0.043768
PRIMCOORD
4 1
H       0.69413      3.24602      6.39523        -0.183091     -0.118539     -0.233000
H       0.46202      1.51712      6.60594        -0.272825     -0.529690     -0.610114
H       0.50631      2.54209      1.24914        -0.108753      0.104889      0.005092
N       0.64191      2.42122      0.26060         0.564091      0.544413      0.836312
