  # total energy =   -19.17955105 
CRSYTAL
PRIMVEC
     6.7020160000000004    0.0000000000000000    0.0000000000000000
     0.0000000000000000    6.7020160000000004    0.0000000000000000
     0.0000000000000000    0.0000000000000000    6.7020160000000004
PRESSURE
-0.452623 -1.30056 -0.539891 -0.067936 -0.066436 -0.432838
PRIMCOORD
4 1
H       1.47492      0.77030      0.14223         0.163652      0.878846      0.797918
H       0.08182      1.36181      0.52060         0.714949      0.597160      0.567595
H       0.72116      0.23532      1.41369         0.844954      2.158175     -0.158922
N       1.02227      1.22430      0.99464        -1.723928     -3.633687     -1.207459
