  # total energy =   -19.41604031 
CRSYTAL
PRIMVEC
     6.7020160000000004    0.0000000000000000    0.0000000000000000
     0.0000000000000000    6.7020160000000004    0.0000000000000000
     0.0000000000000000    0.0000000000000000    6.7020160000000004
PRESSURE
-0.673028 -0.746284 -1.00304 0.65148 0.15508 0.129669
PRIMCOORD
4 1
H       1.63913      1.07196      0.14887        -0.774610      0.055941      0.800670
H       0.03403      1.47971      0.46403         0.786827     -0.360576      0.404914
H       0.88458      0.47631      1.58770         0.080258      1.634977     -1.620260
N       0.96318      1.31997      0.91000        -0.091619     -1.329893      0.414354
