  # total energy =   -19.18395396 
CRSYTAL
PRIMVEC
     6.7020160000000004    0.0000000000000000    0.0000000000000000
     0.0000000000000000    6.7020160000000004    0.0000000000000000
     0.0000000000000000    0.0000000000000000    6.7020160000000004
PRESSURE
-1.44535 -1.18725 -0.500413 -0.230533 0.154568 0.10194
PRIMCOORD
4 1
H       6.54097      3.70024      5.18212         0.863952      1.042886      0.781601
H       0.07484      5.33184      5.59826         0.638929     -1.555242      0.082805
H       5.88928      4.37057      6.49685         2.382338     -0.382297     -0.574212
N       0.18212      4.33009      5.98175        -3.884745      0.894771     -0.289647
