  # total energy =   -19.42840796 
CRSYTAL
PRIMVEC
     6.7020160000000004    0.0000000000000000    0.0000000000000000
     0.0000000000000000    6.7020160000000004    0.0000000000000000
     0.0000000000000000    0.0000000000000000    6.7020160000000004
PRESSURE
0.514951 0.471957 0.745269 0.083788 -0.274567 0.176695
PRIMCOORD
4 1
H       6.58258      3.59565      5.28794        -0.406161     -0.299434     -0.838857
H       0.58078      5.00599      5.84810         0.188736      0.807595     -0.380782
H       6.22491      4.17342      0.08905        -1.089962      0.135573      0.922013
N       0.18844      4.12138      6.06971         1.307134     -0.643625      0.298033
