  # total energy =   -19.38068229 
CRSYTAL
PRIMVEC
     6.7020160000000004    0.0000000000000000    0.0000000000000000
     0.0000000000000000    6.7020160000000004    0.0000000000000000
     0.0000000000000000    0.0000000000000000    6.7020160000000004
PRESSURE
0.718132 0.578871 1.02835 0.063305 -0.502889 0.235513
PRIMCOORD
4 1
H       6.58278      3.58344      5.29711        -0.380805     -0.292483     -0.923598
H       0.59695      4.99023      5.86870         0.356548      1.048445     -0.522567
H       6.24370      4.16655      0.08847        -1.614698      0.139201      1.551971
N       0.18799      4.11633      6.07161         1.639054     -0.895074     -0.105102
