  # total energy =   -19.19104259 
CRSYTAL
PRIMVEC
     6.7020160000000004    0.0000000000000000    0.0000000000000000
     0.0000000000000000    6.7020160000000004    0.0000000000000000
     0.0000000000000000    0.0000000000000000    6.7020160000000004
PRESSURE
0.737125 1.17178 0.501611 -0.33661 -0.529541 0.074233
PRIMCOORD
4 1
H       0.34329      3.89274      5.17733        -0.359789     -0.970745      0.384739
H       0.07706      5.41449      5.34764        -0.583036      1.731613     -0.091039
H       6.11667      4.40444      6.53794        -2.231082     -0.598336      1.686248
N       0.05635      4.57604      5.85500         3.172372     -0.161743     -1.979781
