  # total energy =   -19.46125285 
CRSYTAL
PRIMVEC
     6.7020160000000004    0.0000000000000000    0.0000000000000000
     0.0000000000000000    6.7020160000000004    0.0000000000000000
     0.0000000000000000    0.0000000000000000    6.7020160000000004
PRESSURE
-0.286639 -0.205885 -0.261741 0.26719 0.034065 0.179751
PRIMCOORD
4 1
H       1.68268      1.16661      0.19805        -0.507442      0.000919      0.023929
H       0.03218      1.53209      0.47405         0.169567     -0.369517     -0.053167
H       0.94540      0.59411      1.59349        -0.297572      0.502028     -0.704745
N       0.94386      1.34489      0.88209         0.635521     -0.133002      0.734170
