  # total energy =   -19.28059540 
CRSYTAL
PRIMVEC
     6.7020160000000004    0.0000000000000000    0.0000000000000000
     0.0000000000000000    6.7020160000000004    0.0000000000000000
     0.0000000000000000    0.0000000000000000    6.7020160000000004
PRESSURE
-0.804613 0.023667 -0.814932 -0.086042 0.411376 -0.131962
PRIMCOORD
4 1
H       6.46169      3.52746      5.40989         0.251508      0.266595      0.246565
H       1.21339      4.12572      6.20639        -0.807358     -0.079052      0.060642
H       6.40421      3.83706      0.43678         1.073086      0.069573     -1.485861
N       0.26798      3.74278      6.25999        -0.517285     -0.255779      1.178828
