  # total energy =   -19.30311815 
CRSYTAL
PRIMVEC
     6.7020160000000004    0.0000000000000000    0.0000000000000000
     0.0000000000000000    6.7020160000000004    0.0000000000000000
     0.0000000000000000    0.0000000000000000    6.7020160000000004
PRESSURE
0.096451 0.604127 -0.15262 0.015057 0.114159 0.060557
PRIMCOORD
4 1
H       0.64715      3.24962      6.37005        -0.193135      0.555164     -0.562427
H       0.48826      1.54210      6.59531        -0.295961     -0.775016     -0.630901
H       0.47630      2.56596      1.25028        -0.001869      0.074282     -0.810109
N       0.63685      2.44915      0.24627         0.490989      0.146395      2.002553
