  # total energy =   -19.49349957 
CRSYTAL
PRIMVEC
     6.7020160000000004    0.0000000000000000    0.0000000000000000
     0.0000000000000000    6.7020160000000004    0.0000000000000000
     0.0000000000000000    0.0000000000000000    6.7020160000000004
PRESSURE
-0.001577 -0.559575 0.267517 -0.155604 -0.297515 0.040549
PRIMCOORD
4 1
H       0.12443      3.28907      6.21164         0.380046     -0.277701      0.054354
H       0.46890      1.69896      6.48415         0.143358      0.893778      0.403061
H       0.08656      2.73918      0.99320        -0.309699     -0.164722      0.833778
N       0.63728      2.66404      0.15590        -0.213550     -0.451274     -1.292561
