  # total energy =   -19.17182744 
CRSYTAL
PRIMVEC
     6.7020160000000004    0.0000000000000000    0.0000000000000000
     0.0000000000000000    6.7020160000000004    0.0000000000000000
     0.0000000000000000    0.0000000000000000    6.7020160000000004
PRESSURE
-1.00513 -0.031443 -1.0583 -0.149788 -0.648085 -0.348628
PRIMCOORD
4 1
H       1.57869      2.26557      0.24596        -1.054476     -0.164897     -0.511409
H       6.59443      1.55932      0.20190         0.946212      0.553245      0.538165
H       0.99804      1.64314      1.67095        -1.166330     -0.102379     -1.861682
N       0.81970      1.69291      0.62552         1.273531     -0.285656      1.834100
