  # total energy =   -19.46595872 
CRSYTAL
PRIMVEC
     6.7020160000000004    0.0000000000000000    0.0000000000000000
     0.0000000000000000    6.7020160000000004    0.0000000000000000
     0.0000000000000000    0.0000000000000000    6.7020160000000004
PRESSURE
0.36137 0.142445 0.210495 -0.024503 -0.404424 -0.079946
PRIMCOORD
4 1
H       6.60577      3.77998      5.71290         0.207146      0.259373     -0.182764
H       1.35379      3.41406      6.47379         0.622969      0.006098     -0.772826
H       0.12789      3.75293      0.63506        -0.697641      0.173147      0.312846
N       0.35469      3.28061      6.47085        -0.133286     -0.438277      0.642819
