  # total energy =   -19.25364628 
CRSYTAL
PRIMVEC
     6.7020160000000004    0.0000000000000000    0.0000000000000000
     0.0000000000000000    6.7020160000000004    0.0000000000000000
     0.0000000000000000    0.0000000000000000    6.7020160000000004
PRESSURE
0.267557 0.143784 -0.543842 -0.240113 0.491931 -0.141493
PRIMCOORD
4 1
H       6.68832      3.56726      5.74689        -0.419486      0.356874      0.053788
H       1.30206      2.79307      6.35209         0.690803     -0.211303      0.691611
H       0.03044      3.41005      0.78853         0.787598     -0.219358     -0.875462
N       0.41096      3.17687      6.56577        -1.058339      0.073634      0.129908
