  # total energy =   -19.32893329 
CRSYTAL
PRIMVEC
     6.7020160000000004    0.0000000000000000    0.0000000000000000
     0.0000000000000000    6.7020160000000004    0.0000000000000000
     0.0000000000000000    0.0000000000000000    6.7020160000000004
PRESSURE
0.167706 -0.915429 -0.026141 0.171322 -0.252771 -0.011839
PRIMCOORD
4 1
H       0.48322      3.30133      6.25513        -0.083619     -0.938676      1.011226
H       0.51369      1.57928      6.50617        -0.131923      1.054425      0.634932
H       0.37797      2.64961      1.16492        -0.621670      0.140980      0.972467
N       0.63106      2.51972      0.22297         0.836228     -0.256677     -2.618167
