  # total energy =   -19.32411380 
CRSYTAL
PRIMVEC
     6.7020160000000004    0.0000000000000000    0.0000000000000000
     0.0000000000000000    6.7020160000000004    0.0000000000000000
     0.0000000000000000    0.0000000000000000    6.7020160000000004
PRESSURE
-0.074912 -0.537864 0.303893 0.103394 -0.175301 -0.317909
PRIMCOORD
4 1
H       0.92239      3.02387      6.49228        -0.347364     -0.472523      0.656712
H       0.17028      1.46324      6.60905         0.376355      0.892269      0.636257
H       0.60788      2.31469      1.34450        -0.368029      0.346855      1.322856
N       0.70647      2.21159      0.37686         0.337959     -0.767806     -2.616219
