  # total energy =   -19.40411944 
CRSYTAL
PRIMVEC
     6.7020160000000004    0.0000000000000000    0.0000000000000000
     0.0000000000000000    6.7020160000000004    0.0000000000000000
     0.0000000000000000    0.0000000000000000    6.7020160000000004
PRESSURE
-0.718227 -0.738008 -1.00186 0.687355 0.146967 0.182194
PRIMCOORD
4 1
H       1.65536      1.09597      0.15759        -0.861287      0.046201      0.732946
H       0.02912      1.49580      0.46476         0.802758     -0.435579      0.357388
H       0.90057      0.49729      1.59896        -0.017887      1.633922     -1.699600
N       0.95815      1.32683      0.90256         0.077040     -1.243980      0.608609
