  # total energy =   -19.26662743 
CRSYTAL
PRIMVEC
     6.7020160000000004    0.0000000000000000    0.0000000000000000
     0.0000000000000000    6.7020160000000004    0.0000000000000000
     0.0000000000000000    0.0000000000000000    6.7020160000000004
PRESSURE
1.15483 0.320954 1.35797 0.239936 -0.845233 0.047221
PRIMCOORD
4 1
H       6.43597      3.64283      5.48139         0.105552      0.331433     -0.454192
H       1.20060      3.98587      6.31652         1.502016      0.766552     -0.604621
H       6.53016      3.86814      0.39890        -1.906258      0.909523      2.776728
N       0.29303      3.62814      6.31029         0.299846     -2.007958     -1.719663
