  # total energy =   -19.14216510 
CRSYTAL
PRIMVEC
     6.7020160000000004    0.0000000000000000    0.0000000000000000
     0.0000000000000000    6.7020160000000004    0.0000000000000000
     0.0000000000000000    0.0000000000000000    6.7020160000000004
PRESSURE
-0.429351 -1.25125 -0.424642 -0.169553 0.575245 -0.053472
PRIMCOORD
4 1
H       6.66073      3.98901      5.69044        -0.463869     -1.130654     -0.054529
H       1.30290      3.78643      6.29729        -0.716865     -1.166030      0.742770
H       6.67061      3.99570      0.52981         0.800483     -1.644657     -0.933502
N       0.33483      3.33449      6.43277         0.379712      3.940604      0.245089
