  # total energy =   -19.41843623 
CRSYTAL
PRIMVEC
     6.7020160000000004    0.0000000000000000    0.0000000000000000
     0.0000000000000000    6.7020160000000004    0.0000000000000000
     0.0000000000000000    0.0000000000000000    6.7020160000000004
PRESSURE
0.076247 0.593903 -0.62245 0.00604 0.142711 0.177615
PRIMCOORD
4 1
H       0.29904      3.28219      6.21835        -0.064518      0.072474      0.329717
H       0.51908      1.70444      6.46350        -0.419221     -1.310101      0.078454
H       0.22520      2.74544      1.12488         0.048147     -0.531762     -0.958342
N       0.63161      2.58970      0.18674         0.434602      1.769331      0.550221
