  # total energy =   -19.32162930 
CRSYTAL
PRIMVEC
     6.7020160000000004    0.0000000000000000    0.0000000000000000
     0.0000000000000000    6.7020160000000004    0.0000000000000000
     0.0000000000000000    0.0000000000000000    6.7020160000000004
PRESSURE
-0.052212 0.030583 -0.207276 -0.011996 0.075962 -0.013371
PRIMCOORD
4 1
H       6.57784      3.46077      5.34299        -0.114619      0.111800      0.197078
H       1.01908      4.52791      6.06683        -0.164390      0.059329      0.104346
H       6.37338      3.94391      0.31358         0.041568      0.085842     -0.242008
N       0.21583      3.92979      6.16760         0.238445     -0.256780     -0.058591
