  # total energy =   -19.32914674 
CRSYTAL
PRIMVEC
     6.7020160000000004    0.0000000000000000    0.0000000000000000
     0.0000000000000000    6.7020160000000004    0.0000000000000000
     0.0000000000000000    0.0000000000000000    6.7020160000000004
PRESSURE
0.405934 0.177473 0.707171 0.074853 -0.62626 -0.035058
PRIMCOORD
4 1
H       6.43293      3.60123      5.45630         0.310623      0.323513     -0.073449
H       1.21305      4.02280      6.29320         0.435812      0.390379     -0.476451
H       6.49668      3.85286      0.40843        -1.119541      0.506954      1.574437
N       0.28587      3.66194      6.29589         0.373058     -1.219638     -1.025507
