  # total energy =   -19.42812200 
CRSYTAL
PRIMVEC
     6.7020160000000004    0.0000000000000000    0.0000000000000000
     0.0000000000000000    6.7020160000000004    0.0000000000000000
     0.0000000000000000    0.0000000000000000    6.7020160000000004
PRESSURE
0.622651 0.222757 0.811401 -0.240823 -0.57037 -0.006593
PRIMCOORD
4 1
H       6.67826      3.70400      5.23023         0.347982      0.263159     -0.634455
H       0.10896      5.34614      5.57619         0.134512      0.661381     -0.853552
H       6.01441      4.33989      6.46544        -1.459856     -0.054551      1.439065
N       0.13783      4.41542      5.93738         0.977301     -0.869845      0.049552
