  # total energy =   -19.41920043 
CRSYTAL
PRIMVEC
     6.7020160000000004    0.0000000000000000    0.0000000000000000
     0.0000000000000000    6.7020160000000004    0.0000000000000000
     0.0000000000000000    0.0000000000000000    6.7020160000000004
PRESSURE
0.114101 0.490965 -0.455399 0.170091 0.231543 0.1084
PRIMCOORD
4 1
H       0.93409      2.89616      6.56159         0.008863      0.867924      0.331450
H       6.69457      1.58358      0.01455        -0.308821     -0.262180     -0.260015
H       0.52851      2.19188      1.42690         0.311449      0.704837     -0.757621
N       0.75986      2.08994      0.42778        -0.012233     -1.309989      0.686659
