  # total energy =   -19.21702348 
CRSYTAL
PRIMVEC
     6.7020160000000004    0.0000000000000000    0.0000000000000000
     0.0000000000000000    6.7020160000000004    0.0000000000000000
     0.0000000000000000    0.0000000000000000    6.7020160000000004
PRESSURE
-1.35478 -0.648642 -0.325158 -0.085404 0.082098 0.26103
PRIMCOORD
4 1
H       6.51936      3.73542      5.18489         0.786011      0.361736      0.475400
H       0.07983      5.28602      5.60138         0.793952     -0.994257      0.136482
H       5.90177      4.37252      6.49933         2.198187     -0.518398     -0.352498
N       0.19030      4.30188      5.99643        -3.777779      1.151190     -0.259203
