  # total energy =   -19.30493776 
CRSYTAL
PRIMVEC
     6.7020160000000004    0.0000000000000000    0.0000000000000000
     0.0000000000000000    6.7020160000000004    0.0000000000000000
     0.0000000000000000    0.0000000000000000    6.7020160000000004
PRESSURE
0.103663 0.4587 0.061761 0.155795 0.079612 0.074478
PRIMCOORD
4 1
H       0.68122      3.24596      6.38967        -0.172699      0.155857     -0.383297
H       0.47084      1.52769      6.60562        -0.320111     -0.823970     -0.714199
H       0.49780      2.54867      1.25132        -0.061741      0.089438     -0.333845
N       0.64030      2.42915      0.25601         0.554030      0.579791      1.429587
