  # total energy =   -19.35384808 
CRSYTAL
PRIMVEC
     6.7020160000000004    0.0000000000000000    0.0000000000000000
     0.0000000000000000    6.7020160000000004    0.0000000000000000
     0.0000000000000000    0.0000000000000000    6.7020160000000004
PRESSURE
0.584786 0.517718 0.238639 0.256799 -0.603591 0.233418
PRIMCOORD
4 1
H       6.52057      3.79209      5.18324         0.146159     -0.928735      0.080927
H       0.22330      5.14706      5.61404         0.679381      0.633857      0.416703
H       6.06575      4.31250      6.57054        -1.357251     -0.082399      1.335232
N       0.19465      4.21562      6.04167         0.532335      0.378396     -1.833423
