  # total energy =   -19.18037838 
CRSYTAL
PRIMVEC
     6.7020160000000004    0.0000000000000000    0.0000000000000000
     0.0000000000000000    6.7020160000000004    0.0000000000000000
     0.0000000000000000    0.0000000000000000    6.7020160000000004
PRESSURE
-1.0286 -0.216579 -1.47075 -0.063228 0.737254 -0.380881
PRIMCOORD
4 1
H       6.56559      3.46126      5.33043         0.024425      0.361622      0.822948
H       1.08752      4.46572      6.06621        -1.309119     -0.599363      0.460463
H       6.34627      3.91217      0.38193         1.391867      0.131150     -2.219511
N       0.22426      3.89817      6.18397        -0.106751      0.106871      0.936926
