  # total energy =   -19.47589320 
CRSYTAL
PRIMVEC
     6.7020160000000004    0.0000000000000000    0.0000000000000000
     0.0000000000000000    6.7020160000000004    0.0000000000000000
     0.0000000000000000    0.0000000000000000    6.7020160000000004
PRESSURE
0.437958 0.550575 0.357454 -0.395894 -0.098599 -0.137888
PRIMCOORD
4 1
H       1.54793      0.98241      0.15483         0.573284     -0.086707     -0.173849
H       0.08432      1.40696      0.48157        -0.565090      0.425833     -0.063286
H       0.83116      0.46735      1.47605         0.015117     -1.143977      0.950401
N       0.98165      1.28934      0.93903        -0.024559      0.804584     -0.713035
