  # total energy =   -19.30537063 
CRSYTAL
PRIMVEC
     6.7020160000000004    0.0000000000000000    0.0000000000000000
     0.0000000000000000    6.7020160000000004    0.0000000000000000
     0.0000000000000000    0.0000000000000000    6.7020160000000004
PRESSURE
0.202875 0.550021 -0.127269 -0.151859 0.037166 0.25024
PRIMCOORD
4 1
H       0.88668      3.07267      6.51441        -0.013219      0.560428     -0.591496
H       0.28892      1.47333      6.61155        -0.644283     -0.806154     -0.373954
H       0.62030      2.40997      1.35019        -0.214753     -0.335083     -0.685309
N       0.68281      2.26206      0.34210         0.872781      0.580528      1.650315
