  # total energy =   -19.46922637 
CRSYTAL
PRIMVEC
     6.7020160000000004    0.0000000000000000    0.0000000000000000
     0.0000000000000000    6.7020160000000004    0.0000000000000000
     0.0000000000000000    0.0000000000000000    6.7020160000000004
PRESSURE
0.38278 0.546586 0.736542 0.065597 -0.282795 -0.032119
PRIMCOORD
4 1
H       0.04325      3.73267      5.22955         0.094940     -0.493649     -1.040109
H       0.13018      5.35678      5.53470        -0.100218      0.772261     -0.576126
H       6.02480      4.32660      6.50282        -0.860030      0.136983      0.747126
N       0.12337      4.44067      5.92335         0.865388     -0.415866      0.868931
