  # total energy =   -19.25190465 
CRSYTAL
PRIMVEC
     6.7020160000000004    0.0000000000000000    0.0000000000000000
     0.0000000000000000    6.7020160000000004    0.0000000000000000
     0.0000000000000000    0.0000000000000000    6.7020160000000004
PRESSURE
0.482893 0.983344 0.742886 0.176207 -0.592035 0.376653
PRIMCOORD
4 1
H       6.51176      3.80720      5.19974         0.167507     -1.305620     -0.701679
H       0.14438      5.16113      5.61179         0.982878      1.435965     -0.146984
H       6.02847      4.34443      6.50668        -1.182092     -0.318658      1.596919
N       0.19463      4.24395      6.02789         0.031523      0.186940     -0.749481
