  # total energy =   -19.22203645 
CRSYTAL
PRIMVEC
     6.7020160000000004    0.0000000000000000    0.0000000000000000
     0.0000000000000000    6.7020160000000004    0.0000000000000000
     0.0000000000000000    0.0000000000000000    6.7020160000000004
PRESSURE
0.231647 0.20443 -0.140573 0.180725 -0.057633 -0.206964
PRIMCOORD
4 1
H       6.67615      3.53642      5.91145        -0.092410     -0.103514     -0.646085
H       1.14267      2.33564      6.56974         0.434728     -0.502235     -1.002789
H       0.13790      3.13523      0.89015        -0.152606      0.245962     -0.787132
N       0.46425      3.05386      6.62535        -0.189717      0.358592      2.436350
