  # total energy =   -19.31880321 
CRSYTAL
PRIMVEC
     6.7020160000000004    0.0000000000000000    0.0000000000000000
     0.0000000000000000    6.7020160000000004    0.0000000000000000
     0.0000000000000000    0.0000000000000000    6.7020160000000004
PRESSURE
-0.39069 -0.412297 -0.976264 -0.013086 -0.167071 -0.510256
PRIMCOORD
4 1
H       0.93673      2.95195      6.50323        -0.298479      0.019316      0.820236
H       0.04964      1.48941      6.63881         1.095767      1.282542      0.918386
H       0.56511      2.23123      1.41428         0.018137      0.581446     -0.878707
N       0.73544      2.15390      0.40445        -0.815745     -1.883535     -0.857899
