  # total energy =   -19.43338685 
CRSYTAL
PRIMVEC
     6.7020160000000004    0.0000000000000000    0.0000000000000000
     0.0000000000000000    6.7020160000000004    0.0000000000000000
     0.0000000000000000    0.0000000000000000    6.7020160000000004
PRESSURE
-0.046461 -0.117708 -0.568844 0.265102 -0.110058 0.085423
PRIMCOORD
4 1
H       6.52923      3.76202      5.17152         0.173245     -0.403896      0.780975
H       0.28959      5.15358      5.62215         0.238843     -0.413874      0.877131
H       6.06217      4.28934      6.64058         0.078814     -0.055453     -0.004626
N       0.19541      4.19756      6.04827        -0.490161      0.873954     -1.652850
