  # total energy =   -19.32241231 
CRSYTAL
PRIMVEC
     6.7020160000000004    0.0000000000000000    0.0000000000000000
     0.0000000000000000    6.7020160000000004    0.0000000000000000
     0.0000000000000000    0.0000000000000000    6.7020160000000004
PRESSURE
0.162607 -0.961628 0.008964 0.158791 -0.240881 -0.02883
PRIMCOORD
4 1
H       0.49738      3.30000      6.26158        -0.105690     -0.928100      0.968786
H       0.51238      1.57081      6.51136        -0.112227      1.150582      0.627966
H       0.38791      2.64197      1.16952        -0.602550      0.166583      1.000705
N       0.63122      2.51443      0.22527         0.819573     -0.389276     -2.597254
