  # total energy =   -19.24220665 
CRSYTAL
PRIMVEC
     6.7020160000000004    0.0000000000000000    0.0000000000000000
     0.0000000000000000    6.7020160000000004    0.0000000000000000
     0.0000000000000000    0.0000000000000000    6.7020160000000004
PRESSURE
0.662664 0.63504 1.41042 -0.784891 -0.049252 -0.030322
PRIMCOORD
4 1
H       1.71683      1.31035      0.26558         0.408869      0.139450     -1.158930
H       0.03155      1.58517      0.48035        -1.092023     -0.018251     -0.682987
H       1.01565      0.78503      1.58057        -0.339647     -1.884156      2.343974
N       0.91845      1.38294      0.84286         1.022756      1.762169     -0.501718
