  # total energy =   -19.28644973 
CRSYTAL
PRIMVEC
     6.7020160000000004    0.0000000000000000    0.0000000000000000
     0.0000000000000000    6.7020160000000004    0.0000000000000000
     0.0000000000000000    0.0000000000000000    6.7020160000000004
PRESSURE
-0.536063 -0.216647 -0.09565 0.025976 -0.008539 0.367558
PRIMCOORD
4 1
H       6.67264      3.56294      5.79809         0.297791     -0.230778      0.474677
H       1.28310      2.56925      6.42606        -1.025075      0.690334      0.369723
H       0.07239      3.29650      0.80809         0.055060     -0.020210      0.307167
N       0.43069      3.12751      6.59456         0.671406     -0.439819     -1.151619
