  # total energy =   -19.32463760 
CRSYTAL
PRIMVEC
     6.7020160000000004    0.0000000000000000    0.0000000000000000
     0.0000000000000000    6.7020160000000004    0.0000000000000000
     0.0000000000000000    0.0000000000000000    6.7020160000000004
PRESSURE
0.094549 0.238027 -0.187592 -0.039883 0.086788 0.003328
PRIMCOORD
4 1
H       0.62466      3.25775      6.35206        -0.222313      0.385669     -0.379496
H       0.49508      1.54147      6.58165        -0.204616     -0.162439     -0.331646
H       0.46341      2.57713      1.24077        -0.042755      0.093407     -0.676694
N       0.63523      2.46120      0.24211         0.469847     -0.316454      1.388006
