  # total energy =   -19.28664264 
CRSYTAL
PRIMVEC
     6.7020160000000004    0.0000000000000000    0.0000000000000000
     0.0000000000000000    6.7020160000000004    0.0000000000000000
     0.0000000000000000    0.0000000000000000    6.7020160000000004
PRESSURE
-0.810418 0.139688 0.110234 0.051899 -0.098209 0.378005
PRIMCOORD
4 1
H       6.51028      3.77329      5.19394         0.545050     -0.486177     -0.121320
H       0.09591      5.22951      5.60605         0.912758      0.073912      0.016236
H       5.94427      4.36697      6.49703         1.287034     -0.555122      0.239204
N       0.19415      4.27665      6.00991        -2.744726      0.967416     -0.134746
