  # total energy =   -19.24090029 
CRSYTAL
PRIMVEC
     6.7020160000000004    0.0000000000000000    0.0000000000000000
     0.0000000000000000    6.7020160000000004    0.0000000000000000
     0.0000000000000000    0.0000000000000000    6.7020160000000004
PRESSURE
0.125655 0.104331 -0.805101 -0.266695 0.548638 -0.07302
PRIMCOORD
4 1
H       6.68750      3.56593      5.74902        -0.320384      0.275585      0.196536
H       1.29998      2.76794      6.35426         0.508530     -0.154167      0.710306
H       0.02715      3.40072      0.80213         0.937665     -0.328158     -1.261289
N       0.41362      3.17137      6.56876        -1.125265      0.206449      0.353558
