  # total energy =   -19.32886969 
CRSYTAL
PRIMVEC
     6.7020160000000004    0.0000000000000000    0.0000000000000000
     0.0000000000000000    6.7020160000000004    0.0000000000000000
     0.0000000000000000    0.0000000000000000    6.7020160000000004
PRESSURE
1.00489 0.148009 1.00953 0.657321 -0.276191 -0.032844
PRIMCOORD
4 1
H       6.57435      3.93184      5.59404        -0.464720     -0.636765     -0.308347
H       1.20336      3.90791      6.26477         1.442152      0.100624      0.398475
H       6.60078      3.95387      0.40347        -0.986376      1.032512      2.383986
N       0.32083      3.45048      6.38862         0.008952     -0.496633     -2.474306
