  # total energy =   -19.31401874 
CRSYTAL
PRIMVEC
     6.7020160000000004    0.0000000000000000    0.0000000000000000
     0.0000000000000000    6.7020160000000004    0.0000000000000000
     0.0000000000000000    0.0000000000000000    6.7020160000000004
PRESSURE
-0.364331 -0.566197 -0.769623 0.005408 -0.21162 -0.546547
PRIMCOORD
4 1
H       0.93550      2.96831      6.49684        -0.349458     -0.206345      0.897305
H       0.06996      1.47774      6.62828         1.081105      1.389580      0.981893
H       0.57478      2.24603      1.39944        -0.097054      0.543277     -0.415203
N       0.72963      2.16625      0.39944        -0.634936     -1.725922     -1.462567
