  # total energy =   -19.20847577 
CRSYTAL
PRIMVEC
     6.7020160000000004    0.0000000000000000    0.0000000000000000
     0.0000000000000000    6.7020160000000004    0.0000000000000000
     0.0000000000000000    0.0000000000000000    6.7020160000000004
PRESSURE
0.726223 0.227409 1.45936 -0.374512 0.08636 0.166922
PRIMCOORD
4 1
H       1.60079      2.09936      0.24393         0.326047      0.574015     -0.950646
H       6.65782      1.55867      0.25272        -1.332662      0.063864     -0.599908
H       0.99476      1.50577      1.60536        -0.270096     -0.458243      2.244078
N       0.83341      1.64311      0.66467         1.276770     -0.180916     -0.692671
