  # total energy =   -19.34486071 
CRSYTAL
PRIMVEC
     6.7020160000000004    0.0000000000000000    0.0000000000000000
     0.0000000000000000    6.7020160000000004    0.0000000000000000
     0.0000000000000000    0.0000000000000000    6.7020160000000004
PRESSURE
0.622581 0.263593 0.895387 -0.101864 -0.601823 0.129903
PRIMCOORD
4 1
H       6.57721      3.53684      5.31214        -0.099899      0.178148     -0.538786
H       0.66111      4.95572      5.92925         0.293479      0.673750     -0.670095
H       6.27483      4.14506      0.12077        -1.551294      0.053965      1.577077
N       0.18878      4.09741      6.07783         1.357902     -0.905596     -0.367195
