  # total energy =   -19.20818600 
CRSYTAL
PRIMVEC
     6.7020160000000004    0.0000000000000000    0.0000000000000000
     0.0000000000000000    6.7020160000000004    0.0000000000000000
     0.0000000000000000    0.0000000000000000    6.7020160000000004
PRESSURE
-0.312342 0.112328 -0.493078 -0.200212 -0.513601 -0.071349
PRIMCOORD
4 1
H       1.59267      2.19830      0.25964        -0.453345      0.255829     -0.859730
H       6.62098      1.55406      0.22108         0.022957      0.341435      0.089494
H       1.01326      1.59436      1.65870        -1.107541     -0.130670     -1.180080
N       0.82306      1.67475      0.63828         1.536978     -0.466889      1.948803
