  # total energy =   -19.50985173 
CRSYTAL
PRIMVEC
     6.7020160000000004    0.0000000000000000    0.0000000000000000
     0.0000000000000000    6.7020160000000004    0.0000000000000000
     0.0000000000000000    0.0000000000000000    6.7020160000000004
PRESSURE
-0.054806 -0.146857 0.441106 0.308405 -0.055287 -0.077352
PRIMCOORD
4 1
H       0.92841      2.92697      6.65480        -0.077236     -0.419165      0.350093
H       6.62235      1.63682      0.04937         0.161267     -0.008016     -0.119719
H       0.52611      2.24404      1.38938        -0.082786      0.390669      1.027640
N       0.77915      2.03074      0.44754        -0.000892      0.036032     -1.258308
