  # total energy =   -19.45133717 
CRSYTAL
PRIMVEC
     6.7020160000000004    0.0000000000000000    0.0000000000000000
     0.0000000000000000    6.7020160000000004    0.0000000000000000
     0.0000000000000000    0.0000000000000000    6.7020160000000004
PRESSURE
-0.487903 -0.342213 -0.307778 0.219581 -0.025622 0.105095
PRIMCOORD
4 1
H       1.11982      2.72159      0.11155         0.144419     -0.725595      0.531562
H       6.54546      1.77821      0.16525         0.906649     -0.401217      0.257667
H       0.62687      2.05363      1.53087         0.363359     -0.055225     -0.249438
N       0.82928      1.80972      0.54465        -1.414080      1.183135     -0.540101
