  # total energy =   -19.27761437 
CRSYTAL
PRIMVEC
     6.7020160000000004    0.0000000000000000    0.0000000000000000
     0.0000000000000000    6.7020160000000004    0.0000000000000000
     0.0000000000000000    0.0000000000000000    6.7020160000000004
PRESSURE
-0.468324 -0.927706 -0.160925 -0.094454 0.335115 -0.160193
PRIMCOORD
4 1
H       6.65385      3.95745      5.70306        -0.299024     -0.895088     -0.123461
H       1.32635      3.72496      6.33547        -0.879872     -1.048396      0.443622
H       0.00969      3.95243      0.53786         0.395079     -1.189209     -0.438495
N       0.33757      3.31925      6.44182         0.784219      3.132427      0.118303
