  # total energy =   -19.44145147 
CRSYTAL
PRIMVEC
     6.7020160000000004    0.0000000000000000    0.0000000000000000
     0.0000000000000000    6.7020160000000004    0.0000000000000000
     0.0000000000000000    0.0000000000000000    6.7020160000000004
PRESSURE
-0.089013 0.362057 -0.923775 -0.25565 0.281552 -0.051059
PRIMCOORD
4 1
H       6.68381      3.27561      5.96907        -0.106677      0.383524      0.478978
H       0.72890      1.97211      6.39752         0.075281     -0.581576      0.651945
H       0.00881      2.94547      0.93102         0.525665     -0.429162     -1.264931
N       0.55755      2.91114      0.03513        -0.494425      0.628677      0.134712
