  # total energy =   -19.19961594 
CRSYTAL
PRIMVEC
     6.7020160000000004    0.0000000000000000    0.0000000000000000
     0.0000000000000000    6.7020160000000004    0.0000000000000000
     0.0000000000000000    0.0000000000000000    6.7020160000000004
PRESSURE
-1.11671 -0.085837 -0.997219 -0.130884 -0.589979 -0.429488
PRIMCOORD
4 1
H       1.56364      2.29888      0.23429        -1.188701     -0.307934     -0.354445
H       6.58765      1.56629      0.19607         1.116100      0.603165      0.617133
H       0.98064      1.66700      1.66238        -1.051421     -0.102134     -1.668565
N       0.81878      1.70193      0.62017         1.123316     -0.192704      1.405480
