  # total energy =   -19.34078894 
CRSYTAL
PRIMVEC
     6.7020160000000004    0.0000000000000000    0.0000000000000000
     0.0000000000000000    6.7020160000000004    0.0000000000000000
     0.0000000000000000    0.0000000000000000    6.7020160000000004
PRESSURE
-0.358666 -0.383006 -0.684497 0.34312 0.514364 -0.064831
PRIMCOORD
4 1
H       0.41497      3.88736      5.24893        -0.346196     -0.135252      0.040345
H       6.65053      5.53836      5.32240        -0.206249     -0.845125      0.408069
H       6.04752      4.42332      6.56130         0.906801      0.210481     -1.440009
N       0.04569      4.63806      5.81195        -0.354474      0.770253      0.992030
