  # total energy =   -19.30371150 
CRSYTAL
PRIMVEC
     6.7020160000000004    0.0000000000000000    0.0000000000000000
     0.0000000000000000    6.7020160000000004    0.0000000000000000
     0.0000000000000000    0.0000000000000000    6.7020160000000004
PRESSURE
0.135089 0.186822 0.59573 -0.23799 -0.121122 0.118011
PRIMCOORD
4 1
H       1.73573      1.36297      0.26574        -0.078933      0.165238     -0.815923
H       0.00954      1.60225      0.46840        -0.445991     -0.163030     -0.408822
H       1.03199      0.81362      1.62109        -0.543518     -0.510145      0.640577
N       0.91121      1.39892      0.82861         1.066987      0.508197      0.583638
