  # total energy =   -19.47229096 
CRSYTAL
PRIMVEC
     6.7020160000000004    0.0000000000000000    0.0000000000000000
     0.0000000000000000    6.7020160000000004    0.0000000000000000
     0.0000000000000000    0.0000000000000000    6.7020160000000004
PRESSURE
-0.22396 -0.497236 0.217617 0.094115 -0.235129 0.060184
PRIMCOORD
4 1
H       0.07922      3.29484      6.20527         0.634405     -0.509043      0.157503
H       0.45152      1.71444      6.51557         0.284975      0.642793     -0.063154
H       0.03794      2.71745      0.96649         0.073205      0.076288      0.601960
N       0.63928      2.68575      0.14452        -0.992814     -0.209834     -0.696853
