  # total energy =   -19.45498301 
CRSYTAL
PRIMVEC
     6.7020160000000004    0.0000000000000000    0.0000000000000000
     0.0000000000000000    6.7020160000000004    0.0000000000000000
     0.0000000000000000    0.0000000000000000    6.7020160000000004
PRESSURE
-0.124723 0.259546 -0.887113 -0.237034 0.195859 -0.025089
PRIMCOORD
4 1
H       6.67695      3.27125      5.97316         0.039053      0.321748      0.588425
H       0.70967      1.95806      6.40085         0.073689     -0.392187      0.666620
H       0.00273      2.93239      0.92472         0.475893     -0.375134     -1.101852
N       0.56169      2.90668      0.03861        -0.588859      0.446561     -0.152657
