  # total energy =   -19.22008803 
CRSYTAL
PRIMVEC
     6.7020160000000004    0.0000000000000000    0.0000000000000000
     0.0000000000000000    6.7020160000000004    0.0000000000000000
     0.0000000000000000    0.0000000000000000    6.7020160000000004
PRESSURE
0.968688 0.434344 1.38893 0.116074 -0.698474 0.417921
PRIMCOORD
4 1
H       6.58307      3.46480      5.36375        -0.294466     -0.312118     -0.757965
H       0.94246      4.60067      6.07212         1.028545      0.946113     -0.346163
H       6.39389      3.98218      0.24341        -1.831079      0.051432      2.510795
N       0.20851      3.96156      6.14955         1.097999     -0.685645     -1.407168
