  # total energy =   -19.25267990 
CRSYTAL
PRIMVEC
     6.7020160000000004    0.0000000000000000    0.0000000000000000
     0.0000000000000000    6.7020160000000004    0.0000000000000000
     0.0000000000000000    0.0000000000000000    6.7020160000000004
PRESSURE
-1.06553 -0.005792 -1.03893 -0.140444 0.428963 -0.195619
PRIMCOORD
4 1
H       6.45222      3.53317      5.41111         0.393545      0.334418      0.408953
H       1.22654      4.11368      6.21946        -1.136897     -0.194480      0.001953
H       6.40501      3.83888      0.45087         1.226589      0.015158     -1.790291
N       0.27072      3.73194      6.26389        -0.482972     -0.154194      1.380103
