  # total energy =   -19.43696367 
CRSYTAL
PRIMVEC
     6.7020160000000004    0.0000000000000000    0.0000000000000000
     0.0000000000000000    6.7020160000000004    0.0000000000000000
     0.0000000000000000    0.0000000000000000    6.7020160000000004
PRESSURE
0.664724 0.208479 0.850365 0.122802 0.27457 0.117541
PRIMCOORD
4 1
H       1.33715      2.49711      0.13028         0.123447      0.412137      0.121800
H       6.61976      1.67791      0.20218        -1.312968     -0.025398     -0.575305
H       0.77390      1.82994      1.56279         0.070087      0.417741      1.481386
N       0.82158      1.76261      0.58416         1.119060     -0.804905     -1.026138
