  # total energy =   -19.30215889 
CRSYTAL
PRIMVEC
     6.7020160000000004    0.0000000000000000    0.0000000000000000
     0.0000000000000000    6.7020160000000004    0.0000000000000000
     0.0000000000000000    0.0000000000000000    6.7020160000000004
PRESSURE
-0.170106 0.06939 -0.217979 0.07722 0.221383 -0.027352
PRIMCOORD
4 1
H       6.54537      3.48409      5.36121        -0.222372      0.030495      0.201576
H       1.11675      4.33152      6.09567        -0.322609      0.079439      0.439939
H       6.38790      3.87067      0.35572         0.224655      0.211487     -0.202653
N       0.23747      3.84770      6.21410         0.320728     -0.321103     -0.438536
