  # total energy =   -19.32185898 
CRSYTAL
PRIMVEC
     6.7020160000000004    0.0000000000000000    0.0000000000000000
     0.0000000000000000    6.7020160000000004    0.0000000000000000
     0.0000000000000000    0.0000000000000000    6.7020160000000004
PRESSURE
-0.212246 0.091854 -0.229452 0.011515 0.226207 0.005825
PRIMCOORD
4 1
H       6.47630      3.52201      5.41013         0.015304      0.137153     -0.057646
H       1.18953      4.14132      6.18950        -0.105324      0.185916      0.108012
H       6.41182      3.83531      0.40608         0.506343      0.175373     -0.536610
N       0.26402      3.75708      6.25548        -0.417293     -0.497360      0.486972
