  # total energy =   -19.49535779 
CRSYTAL
PRIMVEC
     6.7020160000000004    0.0000000000000000    0.0000000000000000
     0.0000000000000000    6.7020160000000004    0.0000000000000000
     0.0000000000000000    0.0000000000000000    6.7020160000000004
PRESSURE
0.023525 -0.534304 0.254632 -0.195579 -0.282156 0.035627
PRIMCOORD
4 1
H       0.13291      3.28749      6.21288         0.324373     -0.215342      0.022169
H       0.47217      1.69779      6.47930         0.113872      0.882298      0.465412
H       0.09444      2.74270      0.99914        -0.328643     -0.203491      0.808009
N       0.63690      2.66029      0.15770        -0.109412     -0.463398     -1.296738
