  # total energy =   -19.23033397 
CRSYTAL
PRIMVEC
     6.7020160000000004    0.0000000000000000    0.0000000000000000
     0.0000000000000000    6.7020160000000004    0.0000000000000000
     0.0000000000000000    0.0000000000000000    6.7020160000000004
PRESSURE
-0.193389 0.006643 -1.09419 -0.259412 0.563549 0.093378
PRIMCOORD
4 1
H       6.68375      3.56504      5.75515        -0.091177      0.089690      0.462492
H       1.29886      2.71587      6.36394        -0.014300      0.068090      0.728859
H       0.02753      3.37915      0.82003         1.035943     -0.420691     -1.588987
N       0.41844      3.16028      6.57506        -0.930224      0.263508      0.396603
