  # total energy =   -19.25254350 
CRSYTAL
PRIMVEC
     6.7020160000000004    0.0000000000000000    0.0000000000000000
     0.0000000000000000    6.7020160000000004    0.0000000000000000
     0.0000000000000000    0.0000000000000000    6.7020160000000004
PRESSURE
0.597706 0.560101 1.30616 -0.706223 -0.058397 -0.010001
PRIMCOORD
4 1
H       1.72050      1.32123      0.26691         0.346845      0.151740     -1.121944
H       0.02801      1.58884      0.47856        -1.011525     -0.035264     -0.648568
H       1.01959      0.79273      1.58693        -0.367624     -1.662894      2.104926
N       0.91684      1.38619      0.83988         1.031937      1.545654     -0.334216
