  # total energy =   -19.23467031 
CRSYTAL
PRIMVEC
     6.7020160000000004    0.0000000000000000    0.0000000000000000
     0.0000000000000000    6.7020160000000004    0.0000000000000000
     0.0000000000000000    0.0000000000000000    6.7020160000000004
PRESSURE
-0.000731 -0.078992 1.25712 0.192818 -0.47121 0.086762
PRIMCOORD
4 1
H       6.67321      3.55096      5.86702         0.055304     -0.056507     -0.426569
H       1.21939      2.44176      6.51273        -0.416017      0.360595     -0.472494
H       0.12647      3.20433      0.80746        -0.982019      0.396582      2.249749
N       0.44604      3.09045      6.61191         1.341453     -0.698830     -1.351388
