  # total energy =   -19.31055574 
CRSYTAL
PRIMVEC
     6.7020160000000004    0.0000000000000000    0.0000000000000000
     0.0000000000000000    6.7020160000000004    0.0000000000000000
     0.0000000000000000    0.0000000000000000    6.7020160000000004
PRESSURE
-0.369469 -1.36785 -0.470815 0.008379 0.389689 0.393534
PRIMCOORD
4 1
H       0.43449      3.85031      5.27736        -0.841103      1.452012      0.399627
H       6.56697      5.58462      5.32502         0.195318     -1.464232      0.154391
H       6.03798      4.43652      6.51297         0.555701      0.116791     -0.875955
N       0.04114      4.67228      5.79421         0.089986     -0.104343      0.322413
