  # total energy =   -19.48535840 
CRSYTAL
PRIMVEC
     6.7020160000000004    0.0000000000000000    0.0000000000000000
     0.0000000000000000    6.7020160000000004    0.0000000000000000
     0.0000000000000000    0.0000000000000000    6.7020160000000004
PRESSURE
-0.779735 -0.145585 -0.641181 -0.159185 0.089248 -0.006352
PRIMCOORD
4 1
H       6.47801      3.81942      5.52120         0.454838     -0.073441      0.477851
H       1.26364      3.94632      6.30602        -0.965535     -0.281892     -0.047303
H       6.53172      3.95380      0.48001         0.604176     -0.450960     -0.970691
N       0.31228      3.51427      6.35437        -0.093408      0.806007      0.540886
