  # total energy =   -19.24212226 
CRSYTAL
PRIMVEC
     6.7020160000000004    0.0000000000000000    0.0000000000000000
     0.0000000000000000    6.7020160000000004    0.0000000000000000
     0.0000000000000000    0.0000000000000000    6.7020160000000004
PRESSURE
-0.402734 -0.074608 -1.06848 -0.207833 0.481751 0.218575
PRIMCOORD
4 1
H       6.67999      3.56502      5.76294         0.075351     -0.045666      0.592675
H       1.29818      2.67438      6.37649        -0.434564      0.284357      0.698570
H       0.03457      3.35914      0.82420         0.928801     -0.390188     -1.440610
N       0.42187      3.15150      6.58030        -0.569482      0.151747      0.148431
