  # total energy =   -19.27078110 
CRSYTAL
PRIMVEC
     6.7020160000000004    0.0000000000000000    0.0000000000000000
     0.0000000000000000    6.7020160000000004    0.0000000000000000
     0.0000000000000000    0.0000000000000000    6.7020160000000004
PRESSURE
-0.314478 -0.718171 -1.49691 0.052232 0.743951 -0.10751
PRIMCOORD
4 1
H       0.24081      3.78889      5.13238        -0.750863      0.751607      1.602010
H       0.14283      5.42484      5.38059        -0.694610     -0.804015      1.113164
H       6.03655      4.34503      6.59873         0.676381      0.364779     -1.464789
N       0.08460      4.51421      5.89007         0.768829     -0.312437     -1.249801
