  # total energy =   -19.15039554 
CRSYTAL
PRIMVEC
     6.7020160000000004    0.0000000000000000    0.0000000000000000
     0.0000000000000000    6.7020160000000004    0.0000000000000000
     0.0000000000000000    0.0000000000000000    6.7020160000000004
PRESSURE
-0.087607 -0.51985 0.051288 -0.795423 -0.000948 0.422671
PRIMCOORD
4 1
H       0.92112      2.89581      0.18776         0.700396     -0.210447     -1.361150
H       6.56011      1.74845      0.11468         0.175426     -0.346761     -0.051227
H       0.54236      2.36058      1.42366         0.283941     -1.788549     -0.348764
N       0.81297      1.90709      0.48174        -1.160489      2.346793      1.761485
