  # total energy =   -19.27087768 
CRSYTAL
PRIMVEC
     6.7020160000000004    0.0000000000000000    0.0000000000000000
     0.0000000000000000    6.7020160000000004    0.0000000000000000
     0.0000000000000000    0.0000000000000000    6.7020160000000004
PRESSURE
-0.445382 -0.844729 -1.54958 0.122037 0.837245 -0.165477
PRIMCOORD
4 1
H       0.21923      3.77624      5.13690        -0.674871      0.793543      1.492345
H       0.14776      5.42511      5.39246        -0.686648     -0.998824      1.115254
H       6.02259      4.33662      6.60357         1.016608      0.464286     -1.729479
N       0.08984      4.50452      5.89447         0.344978     -0.258193     -0.877267
