  # total energy =   -19.23794686 
CRSYTAL
PRIMVEC
     6.7020160000000004    0.0000000000000000    0.0000000000000000
     0.0000000000000000    6.7020160000000004    0.0000000000000000
     0.0000000000000000    0.0000000000000000    6.7020160000000004
PRESSURE
0.433265 1.1382 -0.079455 0.058812 -0.044904 -0.748129
PRIMCOORD
4 1
H       0.34529      4.23435      5.09696         1.422475     -2.183074     -0.042641
H       6.24587      5.33096      4.90102        -0.902217      1.498033      0.178928
H       5.93616      4.48566      6.22939         0.118625     -0.039892     -0.022702
N       0.00391      4.92919      5.71474        -0.639074      0.725516     -0.113438
