  # total energy =   -19.25038949 
CRSYTAL
PRIMVEC
     6.7020160000000004    0.0000000000000000    0.0000000000000000
     0.0000000000000000    6.7020160000000004    0.0000000000000000
     0.0000000000000000    0.0000000000000000    6.7020160000000004
PRESSURE
-0.271647 -0.378858 0.743892 0.094495 -0.125039 -0.465619
PRIMCOORD
4 1
H       6.63828      3.24843      6.12669         0.304018      0.346990     -0.669273
H       0.47340      1.81154      6.54687         0.950774      0.746659     -0.566975
H       6.62310      2.72193      0.82749         0.241646      0.767838      1.106924
N       0.61382      2.83662      0.07570        -1.496269     -1.860907      0.129754
