  # total energy =   -19.51217026 
CRSYTAL
PRIMVEC
     6.7020160000000004    0.0000000000000000    0.0000000000000000
     0.0000000000000000    6.7020160000000004    0.0000000000000000
     0.0000000000000000    0.0000000000000000    6.7020160000000004
PRESSURE
-0.213124 -0.266209 0.304047 0.204169 -0.108998 -0.133885
PRIMCOORD
4 1
H       0.92690      2.93172      6.67423        -0.066637     -0.549496      0.243977
H       6.60697      1.64165      0.05046         0.486551      0.149776      0.051377
H       0.52567      2.25900      1.39330        -0.044534      0.191101      0.762845
N       0.78251      2.02124      0.44990        -0.375388      0.207953     -1.058338
