  # total energy =   -19.40784317 
CRSYTAL
PRIMVEC
     6.7020160000000004    0.0000000000000000    0.0000000000000000
     0.0000000000000000    6.7020160000000004    0.0000000000000000
     0.0000000000000000    0.0000000000000000    6.7020160000000004
PRESSURE
-0.764796 0.09486 -0.537438 -0.036181 -0.0364 0.157066
PRIMCOORD
4 1
H       6.62039      3.66138      5.70027         0.313006      0.192726      0.421104
H       1.40608      3.12655      6.43273        -1.225988      0.406903     -0.072237
H       0.09692      3.59513      0.72940         0.099345      0.128462     -0.715973
N       0.37351      3.24295      6.50930         0.813970     -0.729625      0.366923
