  # total energy =   -19.45304280 
CRSYTAL
PRIMVEC
     6.7020160000000004    0.0000000000000000    0.0000000000000000
     0.0000000000000000    6.7020160000000004    0.0000000000000000
     0.0000000000000000    0.0000000000000000    6.7020160000000004
PRESSURE
-0.610809 -0.0288 -0.691688 -0.339921 0.119437 0.048742
PRIMCOORD
4 1
H       6.45182      3.75756      5.50778         0.405809      0.261852      0.173444
H       1.25484      3.95200      6.32568        -0.621163     -0.004294     -0.362925
H       6.51873      3.94079      0.48962         0.648261     -0.492533     -1.351689
N       0.30800      3.54731      6.33833        -0.431954      0.235698      1.541747
