  # total energy =   -19.49543479 
CRSYTAL
PRIMVEC
     6.7020160000000004    0.0000000000000000    0.0000000000000000
     0.0000000000000000    6.7020160000000004    0.0000000000000000
     0.0000000000000000    0.0000000000000000    6.7020160000000004
PRESSURE
0.078196 -0.013791 -0.080253 -0.356992 0.015849 0.040128
PRIMCOORD
4 1
H       0.19461      3.27564      6.22016        -0.060221      0.290499     -0.208649
H       0.49529      1.70465      6.45722        -0.133225      0.157514      0.572246
H       0.14238      2.76090      1.05197        -0.074013     -0.471963     -0.041346
N       0.63433      2.63413      0.16836         0.267014      0.025380     -0.322786
