  # total energy =   -19.44309526 
CRSYTAL
PRIMVEC
     6.7020160000000004    0.0000000000000000    0.0000000000000000
     0.0000000000000000    6.7020160000000004    0.0000000000000000
     0.0000000000000000    0.0000000000000000    6.7020160000000004
PRESSURE
0.300368 -0.20612 0.524397 -0.304475 -0.428448 -0.048203
PRIMCOORD
4 1
H       6.65245      3.69210      5.22203         0.463329      0.694877     -0.248583
H       0.10075      5.35003      5.58506         0.206761      0.122141     -0.727005
H       5.99393      4.34530      6.46453        -0.751563     -0.054222      1.026901
N       0.14493      4.40389      5.94361         0.081534     -0.762189     -0.051502
