  # total energy =   -19.44639511 
CRSYTAL
PRIMVEC
     6.7020160000000004    0.0000000000000000    0.0000000000000000
     0.0000000000000000    6.7020160000000004    0.0000000000000000
     0.0000000000000000    0.0000000000000000    6.7020160000000004
PRESSURE
-0.025128 -0.471347 0.215932 -0.161941 -0.475603 -0.078166
PRIMCOORD
4 1
H       6.64313      3.25500      6.03037         0.551976      0.132763      0.397820
H       0.59048      1.86590      6.45393         0.371166      0.925730      0.404945
H       6.67847      2.83489      0.85386        -0.472884      0.096275      1.042309
N       0.58640      2.87796      0.05882        -0.449186     -1.154643     -1.845189
