  # total energy =   -19.30610178 
CRSYTAL
PRIMVEC
     6.7020160000000004    0.0000000000000000    0.0000000000000000
     0.0000000000000000    6.7020160000000004    0.0000000000000000
     0.0000000000000000    0.0000000000000000    6.7020160000000004
PRESSURE
-0.447871 -1.30598 -0.650224 0.1092 0.505442 0.308386
PRIMCOORD
4 1
H       0.43304      3.85484      5.26912        -0.806465      1.240022      0.427215
H       6.58626      5.58001      5.32284         0.123715     -1.520185      0.302269
H       6.03632      4.43249      6.53000         0.808511      0.195206     -1.195094
N       0.04227      4.66421      5.79817        -0.126090      0.085092      0.466710
