  # total energy =   -19.26643869 
CRSYTAL
PRIMVEC
     6.7020160000000004    0.0000000000000000    0.0000000000000000
     0.0000000000000000    6.7020160000000004    0.0000000000000000
     0.0000000000000000    0.0000000000000000    6.7020160000000004
PRESSURE
0.3776 0.175726 -0.222161 -0.191027 0.406008 -0.193638
PRIMCOORD
4 1
H       6.68814      3.56946      5.74487        -0.496696      0.422124     -0.075553
H       1.30584      2.81800      6.35157         0.787200     -0.223510      0.672733
H       0.03567      3.41897      0.77265         0.573706     -0.065697     -0.346350
N       0.40810      3.18246      6.56276        -0.863380     -0.132928     -0.250706
