  # total energy =   -19.18296690 
CRSYTAL
PRIMVEC
     6.7020160000000004    0.0000000000000000    0.0000000000000000
     0.0000000000000000    6.7020160000000004    0.0000000000000000
     0.0000000000000000    0.0000000000000000    6.7020160000000004
PRESSURE
-0.5581 -0.129664 -1.57457 0.538396 0.040438 -0.089154
PRIMCOORD
4 1
H       1.62725      1.90930      0.12836        -0.269964     -0.327385      0.929756
H       6.63566      1.58403      0.28509         0.904699     -0.041661      0.554824
H       0.92110      1.23977      1.72630         0.306137      0.795299     -2.144967
N       0.86823      1.56475      0.71986        -0.939766     -0.426760      0.659589
