  # total energy =   -19.19285596 
CRSYTAL
PRIMVEC
     6.7020160000000004    0.0000000000000000    0.0000000000000000
     0.0000000000000000    6.7020160000000004    0.0000000000000000
     0.0000000000000000    0.0000000000000000    6.7020160000000004
PRESSURE
-1.40786 -1.24266 -0.497717 -0.254756 0.154876 0.071108
PRIMCOORD
4 1
H       6.54688      3.69473      5.18287         0.858903      1.137140      0.795423
H       0.07507      5.33847      5.59783         0.605368     -1.589079      0.050967
H       5.89106      4.36941      6.49538         2.334930     -0.348820     -0.572125
N       0.17996      4.33591      5.97875        -3.798809      0.800602     -0.273915
