  # total energy =   -19.24064939 
CRSYTAL
PRIMVEC
     6.7020160000000004    0.0000000000000000    0.0000000000000000
     0.0000000000000000    6.7020160000000004    0.0000000000000000
     0.0000000000000000    0.0000000000000000    6.7020160000000004
PRESSURE
0.584868 0.333277 1.15804 -0.557992 0.199324 -0.102893
PRIMCOORD
4 1
H       1.66864      1.66248      0.18558         0.527882     -0.078582     -0.132653
H       6.69035      1.60933      0.38768        -0.753196      0.054880     -0.360007
H       0.95520      1.06565      1.62997         0.460322     -1.243679      2.293855
N       0.88895      1.48340      0.77347        -0.236022      1.267467     -1.800243
