  # total energy =   -19.33375448 
CRSYTAL
PRIMVEC
     6.7020160000000004    0.0000000000000000    0.0000000000000000
     0.0000000000000000    6.7020160000000004    0.0000000000000000
     0.0000000000000000    0.0000000000000000    6.7020160000000004
PRESSURE
-0.10328 -0.627333 0.412138 0.166562 -0.334703 0.425721
PRIMCOORD
4 1
H       6.69036      3.44922      5.92692         0.119064     -0.562354      0.313769
H       1.01795      2.10738      6.49896        -0.912320      1.085916     -0.114965
H       0.13303      3.05199      0.88566        -0.770097      0.093608      1.111032
N       0.49785      2.98984      6.67868         1.564278     -0.617082     -1.311523
