  # total energy =   -19.26434229 
CRSYTAL
PRIMVEC
     6.7020160000000004    0.0000000000000000    0.0000000000000000
     0.0000000000000000    6.7020160000000004    0.0000000000000000
     0.0000000000000000    0.0000000000000000    6.7020160000000004
PRESSURE
-1.07825 -0.184333 -0.085651 0.00193 -0.012015 0.340429
PRIMCOORD
4 1
H       6.51260      3.75878      5.19012         0.655810     -0.148042      0.134441
H       0.08813      5.25224      5.60408         0.870473     -0.390365      0.081163
H       5.92458      4.37011      6.49805         1.741227     -0.556590     -0.040686
N       0.19308      4.28629      6.00471        -3.267530      1.095475     -0.175193
