  # total energy =   -19.19564199 
CRSYTAL
PRIMVEC
     6.7020160000000004    0.0000000000000000    0.0000000000000000
     0.0000000000000000    6.7020160000000004    0.0000000000000000
     0.0000000000000000    0.0000000000000000    6.7020160000000004
PRESSURE
-0.989425 -0.160311 -1.35768 -0.028872 0.721394 -0.338123
PRIMCOORD
4 1
H       6.55880      3.46738      5.33633        -0.017444      0.295815      0.754648
H       1.10587      4.42188      6.07295        -1.260009     -0.506222      0.517281
H       6.35231      3.89654      0.38579         1.329292      0.153143     -2.047605
N       0.22889      3.88051      6.19418        -0.051382      0.057780      0.776100
