  # total energy =   -19.23855112 
CRSYTAL
PRIMVEC
     6.7020160000000004    0.0000000000000000    0.0000000000000000
     0.0000000000000000    6.7020160000000004    0.0000000000000000
     0.0000000000000000    0.0000000000000000    6.7020160000000004
PRESSURE
0.113685 0.001511 1.13103 0.177549 -0.413592 -0.012397
PRIMCOORD
4 1
H       6.67425      3.54768      5.88029        -0.029356     -0.003869     -0.598714
H       1.20195      2.41838      6.52925        -0.157430      0.148158     -0.640708
H       0.13248      3.18720      0.82038        -0.890561      0.378659      1.821003
N       0.44985      3.08238      6.61480         1.075756     -0.522098     -0.580857
