  # total energy =   -19.31265822 
CRSYTAL
PRIMVEC
     6.7020160000000004    0.0000000000000000    0.0000000000000000
     0.0000000000000000    6.7020160000000004    0.0000000000000000
     0.0000000000000000    0.0000000000000000    6.7020160000000004
PRESSURE
-0.34083 -0.625155 -0.637501 0.017079 -0.226892 -0.550561
PRIMCOORD
4 1
H       0.93456      2.97654      6.49438        -0.368389     -0.302344      0.917863
H       0.08138      1.47301      6.62377         1.044982      1.411949      0.991903
H       0.57967      2.25413      1.39138        -0.153079      0.522984     -0.149028
N       0.72660      2.17246      0.39678        -0.523776     -1.631892     -1.760083
