  # total energy =   -19.25483393 
CRSYTAL
PRIMVEC
     6.7020160000000004    0.0000000000000000    0.0000000000000000
     0.0000000000000000    6.7020160000000004    0.0000000000000000
     0.0000000000000000    0.0000000000000000    6.7020160000000004
PRESSURE
-0.465078 -1.12384 -0.27208 -0.140652 -0.145569 -0.261913
PRIMCOORD
4 1
H       1.46940      0.68918      0.17909         0.187198      0.958758      0.454840
H       0.11007      1.40382      0.58886         0.804150      0.324141      0.443400
H       0.70818      0.18722      1.40990         0.619163      1.798349      0.165251
N       1.04162      1.15730      1.02625        -1.610026     -3.080740     -1.063158
