  # total energy =   -19.44067551 
CRSYTAL
PRIMVEC
     6.7020160000000004    0.0000000000000000    0.0000000000000000
     0.0000000000000000    6.7020160000000004    0.0000000000000000
     0.0000000000000000    0.0000000000000000    6.7020160000000004
PRESSURE
-0.541321 -0.151037 -1.02714 0.186442 0.077582 0.055781
PRIMCOORD
4 1
H       1.17407      2.66424      0.09411         0.040154     -0.390673      0.733210
H       6.54960      1.75884      0.16913         0.964253     -0.254185      0.368891
H       0.64923      1.98678      1.58364         0.519694      0.071191     -1.406501
N       0.82985      1.79683      0.55412        -1.523947      0.574935      0.304223
