  # total energy =   -19.41779335 
CRSYTAL
PRIMVEC
     6.7020160000000004    0.0000000000000000    0.0000000000000000
     0.0000000000000000    6.7020160000000004    0.0000000000000000
     0.0000000000000000    0.0000000000000000    6.7020160000000004
PRESSURE
0.264924 -0.120432 0.443093 -0.284773 -0.057211 0.050591
PRIMCOORD
4 1
H       0.00719      3.35167      5.95147        -0.539967      0.264508     -0.208324
H       0.89112      2.03730      6.42503        -0.399455      0.366997      0.559081
H       0.09066      3.01420      0.89110        -0.713258     -0.259376      0.965093
N       0.52304      2.95181      0.00776         1.651807     -0.373109     -1.316744
