  # total energy =   -19.20724468 
CRSYTAL
PRIMVEC
     6.7020160000000004    0.0000000000000000    0.0000000000000000
     0.0000000000000000    6.7020160000000004    0.0000000000000000
     0.0000000000000000    0.0000000000000000    6.7020160000000004
PRESSURE
0.138551 0.149297 -0.529573 0.228594 0.001698 -0.141274
PRIMCOORD
4 1
H       6.67580      3.53215      5.91520         0.003769     -0.265642     -0.440347
H       1.12662      2.30468      6.57398         0.338646     -0.465500     -1.017796
H       0.13681      3.12074      0.91043         0.027714      0.216995     -1.371944
N       0.46900      3.04463      6.63012        -0.369930      0.512672      2.830411
