  # total energy =   -19.29178302 
CRSYTAL
PRIMVEC
     6.7020160000000004    0.0000000000000000    0.0000000000000000
     0.0000000000000000    6.7020160000000004    0.0000000000000000
     0.0000000000000000    0.0000000000000000    6.7020160000000004
PRESSURE
0.803491 0.243693 1.10563 0.167231 -0.789948 0.002121
PRIMCOORD
4 1
H       6.43379      3.61744      5.46692         0.218318      0.318055     -0.251524
H       1.20619      4.00683      6.30359         0.954206      0.572452     -0.541329
H       6.51317      3.85768      0.40025        -1.624741      0.722275      2.356038
N       0.28870      3.64852      6.30191         0.452479     -1.611957     -1.564856
