  # total energy =   -19.32143131 
CRSYTAL
PRIMVEC
     6.7020160000000004    0.0000000000000000    0.0000000000000000
     0.0000000000000000    6.7020160000000004    0.0000000000000000
     0.0000000000000000    0.0000000000000000    6.7020160000000004
PRESSURE
-0.110735 0.123241 0.14421 -0.092363 0.063451 -0.025632
PRIMCOORD
4 1
H       1.70129      1.60601      0.19907        -0.133867     -0.143037      0.061383
H       6.67635      1.61643      0.40022         0.093460     -0.106511     -0.042241
H       0.98078      1.00244      1.65728         0.087799     -0.333404      0.336135
N       0.89246      1.46708      0.78259        -0.047709      0.583746     -0.354771
