  # total energy =   -19.28011719 
CRSYTAL
PRIMVEC
     6.7020160000000004    0.0000000000000000    0.0000000000000000
     0.0000000000000000    6.7020160000000004    0.0000000000000000
     0.0000000000000000    0.0000000000000000    6.7020160000000004
PRESSURE
0.400258 -0.306769 1.24588 0.117211 -0.059426 0.348743
PRIMCOORD
4 1
H       1.01293      2.80852      0.17127         0.685711     -0.532631     -0.593636
H       6.57531      1.79627      0.16528        -0.632264     -0.734476     -0.523403
H       0.59398      2.19679      1.42210        -0.106881     -0.255344      2.169761
N       0.82326      1.84268      0.52128         0.052826      1.522449     -1.053386
