  # total energy =   -19.43931523 
CRSYTAL
PRIMVEC
     6.7020160000000004    0.0000000000000000    0.0000000000000000
     0.0000000000000000    6.7020160000000004    0.0000000000000000
     0.0000000000000000    0.0000000000000000    6.7020160000000004
PRESSURE
-0.625564 -0.550473 -0.228207 -0.261716 -0.186168 -0.158502
PRIMCOORD
4 1
H       0.92097      2.93863      0.04129         0.051225     -0.729413     -0.240691
H       6.56459      1.66176      0.05650         1.240937      0.416104      0.448001
H       0.52416      2.31073      1.41491         0.176271     -0.656297     -0.360653
N       0.79336      1.98900      0.45711        -1.468794      0.969881      0.153907
