  # total energy =   -19.32874519 
CRSYTAL
PRIMVEC
     6.7020160000000004    0.0000000000000000    0.0000000000000000
     0.0000000000000000    6.7020160000000004    0.0000000000000000
     0.0000000000000000    0.0000000000000000    6.7020160000000004
PRESSURE
-0.03321 -0.454689 0.375745 0.110299 -0.150012 -0.257174
PRIMCOORD
4 1
H       0.92009      3.02850      6.49375        -0.324960     -0.423655      0.569978
H       0.18236      1.46454      6.60902         0.245356      0.728533      0.533938
H       0.61055      2.32290      1.34113        -0.368588      0.310416      1.356816
N       0.70405      2.21616      0.37405         0.447331     -0.616658     -2.461032
