  # total energy =   -19.36457258 
CRSYTAL
PRIMVEC
     6.7020160000000004    0.0000000000000000    0.0000000000000000
     0.0000000000000000    6.7020160000000004    0.0000000000000000
     0.0000000000000000    0.0000000000000000    6.7020160000000004
PRESSURE
-0.228043 0.218881 -1.00663 0.009554 0.064551 -0.183918
PRIMCOORD
4 1
H       0.93624      2.90826      6.53384        -0.079207      0.778175      0.432982
H       0.00743      1.54190      6.68282         0.551070      0.485561      0.356001
H       0.53876      2.19837      1.43881         0.308712      0.673501     -1.433274
N       0.75131      2.11571      0.41853        -0.780210     -1.938091      0.644450
