  # total energy =   -19.12864824 
CRSYTAL
PRIMVEC
     6.7020160000000004    0.0000000000000000    0.0000000000000000
     0.0000000000000000    6.7020160000000004    0.0000000000000000
     0.0000000000000000    0.0000000000000000    6.7020160000000004
PRESSURE
-0.683437 0.058301 0.489593 0.358366 0.299671 -0.533856
PRIMCOORD
4 1
H       6.64854      3.25562      6.16846         0.283658      0.311810     -0.805042
H       0.43185      1.80616      6.58924         0.975921     -0.116807     -1.071741
H       6.59174      2.67578      0.85417         1.210281      1.099283      0.264889
N       0.62760      2.80587      0.08578        -2.471105     -1.293292      1.612027
