  # total energy =   -19.43215238 
CRSYTAL
PRIMVEC
     6.7020160000000004    0.0000000000000000    0.0000000000000000
     0.0000000000000000    6.7020160000000004    0.0000000000000000
     0.0000000000000000    0.0000000000000000    6.7020160000000004
PRESSURE
0.114465 0.402197 -0.583672 -0.339223 0.354242 -0.113448
PRIMCOORD
4 1
H       0.00144      3.29909      5.96174        -0.548412      0.526465     -0.021590
H       0.79749      2.00864      6.39825         0.019147     -0.625394      0.626443
H       0.03980      2.98241      0.92844         0.277930     -0.486134     -0.985670
N       0.54261      2.92765      0.02336         0.251305      0.585595      0.381164
