  # total energy =   -19.47727470 
CRSYTAL
PRIMVEC
     6.7020160000000004    0.0000000000000000    0.0000000000000000
     0.0000000000000000    6.7020160000000004    0.0000000000000000
     0.0000000000000000    0.0000000000000000    6.7020160000000004
PRESSURE
-0.256625 -0.16304 -0.39805 0.109784 0.454113 -0.093459
PRIMCOORD
4 1
H       6.57602      3.63049      5.24839        -0.310309     -0.032601     -0.090348
H       0.53031      5.06437      5.77905        -0.407909     -0.362868      0.235002
H       6.15512      4.19712      0.09781         0.660537      0.099877     -1.020466
N       0.19097      4.13689      6.06419         0.058123      0.296454      0.876959
