  # total energy =   -19.20076656 
CRSYTAL
PRIMVEC
     6.7020160000000004    0.0000000000000000    0.0000000000000000
     0.0000000000000000    6.7020160000000004    0.0000000000000000
     0.0000000000000000    0.0000000000000000    6.7020160000000004
PRESSURE
-0.76886 -0.926035 -1.10297 -0.431507 0.438134 -0.555618
PRIMCOORD
4 1
H       6.56392      3.46858      5.31426         0.358044      1.051830      0.473766
H       0.78971      4.91447      6.00151        -1.050202     -1.334448     -0.515296
H       6.26006      4.10569      0.24872         1.175697     -0.134648     -2.032924
N       0.19534      4.05786      6.08999        -0.483651      0.416739      2.074475
