  # total energy =   -19.31056057 
CRSYTAL
PRIMVEC
     6.7020160000000004    0.0000000000000000    0.0000000000000000
     0.0000000000000000    6.7020160000000004    0.0000000000000000
     0.0000000000000000    0.0000000000000000    6.7020160000000004
PRESSURE
0.567566 0.650501 1.20121 -0.698285 -0.044651 -0.006628
PRIMCOORD
4 1
H       1.70106      1.25253      0.24742         0.318992      0.052371     -0.983768
H       0.04014      1.56513      0.48344        -0.964464     -0.072146     -0.621123
H       0.99119      0.72416      1.56916        -0.350031     -1.825764      1.996471
N       0.92789      1.36663      0.85867         0.995772      1.844251     -0.391058
