  # total energy =   -19.42727877 
CRSYTAL
PRIMVEC
     6.7020160000000004    0.0000000000000000    0.0000000000000000
     0.0000000000000000    6.7020160000000004    0.0000000000000000
     0.0000000000000000    0.0000000000000000    6.7020160000000004
PRESSURE
0.683477 0.572431 0.958207 -0.10381 -0.550784 0.016253
PRIMCOORD
4 1
H       0.00975      3.71992      5.23466         0.211315     -0.252413     -1.004384
H       0.11976      5.34700      5.55879         0.030511      0.991417     -0.838320
H       6.02718      4.33304      6.47800        -1.588256     -0.007188      1.431267
N       0.12993      4.42868      5.93000         1.346701     -0.731995      0.412139
