  # total energy =   -19.23099039 
CRSYTAL
PRIMVEC
     6.7020160000000004    0.0000000000000000    0.0000000000000000
     0.0000000000000000    6.7020160000000004    0.0000000000000000
     0.0000000000000000    0.0000000000000000    6.7020160000000004
PRESSURE
0.870867 0.239365 1.12552 0.169767 -0.445297 0.255695
PRIMCOORD
4 1
H       6.53018      3.49958      5.38682        -0.406626     -0.157269     -0.366583
H       1.12044      4.25296      6.12274         0.867293      0.657530      0.266920
H       6.42324      3.85141      0.32516        -1.359451      0.321019      2.324122
N       0.24537      3.81856      6.23109         0.898093     -0.821700     -2.225247
