  # total energy =   -19.23147028 
CRSYTAL
PRIMVEC
     6.7020160000000004    0.0000000000000000    0.0000000000000000
     0.0000000000000000    6.7020160000000004    0.0000000000000000
     0.0000000000000000    0.0000000000000000    6.7020160000000004
PRESSURE
0.552747 -0.280921 1.28327 0.013567 -0.016206 0.40857
PRIMCOORD
4 1
H       0.99345      2.82278      0.18249         0.779068     -0.410784     -0.837580
H       6.58076      1.79551      0.16316        -0.935802     -0.780548     -0.650347
H       0.58679      2.22685      1.41062        -0.111925     -0.434524      2.133197
N       0.82174      1.85062      0.51558         0.267845      1.625948     -0.645303
