  # total energy =   -19.43168430 
CRSYTAL
PRIMVEC
     6.7020160000000004    0.0000000000000000    0.0000000000000000
     0.0000000000000000    6.7020160000000004    0.0000000000000000
     0.0000000000000000    0.0000000000000000    6.7020160000000004
PRESSURE
-0.71995 -1.07993 -0.425694 0.098711 0.152429 0.376785
PRIMCOORD
4 1
H       0.39104      3.99763      5.20992        -0.607698      1.384710      0.391532
H       6.24185      5.51153      5.07330         0.828552     -1.061680      0.498285
H       5.92331      4.45875      6.29885         0.927013      0.382955     -0.487495
N       0.02644      4.84522      5.73704        -1.146687     -0.706166     -0.403392
