  # total energy =   -19.38460313 
CRSYTAL
PRIMVEC
     6.7020160000000004    0.0000000000000000    0.0000000000000000
     0.0000000000000000    6.7020160000000004    0.0000000000000000
     0.0000000000000000    0.0000000000000000    6.7020160000000004
PRESSURE
0.563935 1.16173 0.877618 -0.643434 -0.447046 0.13843
PRIMCOORD
4 1
H       1.49408      0.70353      0.23369         0.792467      0.032574     -1.022703
H       0.19385      1.47848      0.68100        -0.491878      0.584441     -0.223039
H       0.73692      0.26381      1.44767        -0.924072     -2.400335      1.834911
N       1.04848      1.08461      1.04537         0.623912      1.782038     -0.588628
