  # total energy =   -19.34709797 
CRSYTAL
PRIMVEC
     6.7020160000000004    0.0000000000000000    0.0000000000000000
     0.0000000000000000    6.7020160000000004    0.0000000000000000
     0.0000000000000000    0.0000000000000000    6.7020160000000004
PRESSURE
-0.312926 0.053561 -1.09686 -0.015102 -0.006086 -0.294918
PRIMCOORD
4 1
H       0.93685      2.91766      6.52453        -0.136857      0.608427      0.531824
H       0.01540      1.52634      6.67004         0.790183      0.753777      0.555788
H       0.54469      2.20467      1.43671         0.254283      0.654884     -1.446896
N       0.74755      2.12562      0.41500        -0.907309     -2.017508      0.359671
