  # total energy =   -19.37868254 
CRSYTAL
PRIMVEC
     6.7020160000000004    0.0000000000000000    0.0000000000000000
     0.0000000000000000    6.7020160000000004    0.0000000000000000
     0.0000000000000000    0.0000000000000000    6.7020160000000004
PRESSURE
-0.405825 -0.070987 0.485716 -0.025004 -0.057939 -0.290633
PRIMCOORD
4 1
H       1.47364      2.39813      0.18593        -0.794595     -0.244910     -0.045113
H       6.60046      1.60983      0.19632         0.236562      0.425906      0.168403
H       0.89127      1.74319      1.59167        -0.352058      0.026416      0.992021
N       0.81831      1.73149      0.60467         0.909940     -0.207916     -1.114466
