  # total energy =   -19.51483759 
CRSYTAL
PRIMVEC
     6.7020160000000004    0.0000000000000000    0.0000000000000000
     0.0000000000000000    6.7020160000000004    0.0000000000000000
     0.0000000000000000    0.0000000000000000    6.7020160000000004
PRESSURE
-0.403918 -0.096864 -0.203934 0.079897 -0.041076 -0.030714
PRIMCOORD
4 1
H       6.49862      3.84951      5.53522         0.301548     -0.250144      0.384167
H       1.25162      3.93939      6.29456        -0.547090     -0.245166      0.097640
H       6.54920      3.95182      0.45626         0.170848     -0.092848     -0.065251
N       0.31418      3.49905      6.36315         0.074446      0.588373     -0.416581
