  # total energy =   -19.15129363 
CRSYTAL
PRIMVEC
     6.7020160000000004    0.0000000000000000    0.0000000000000000
     0.0000000000000000    6.7020160000000004    0.0000000000000000
     0.0000000000000000    0.0000000000000000    6.7020160000000004
PRESSURE
-0.897342 -0.985123 -1.27886 -0.441853 0.532013 -0.616323
PRIMCOORD
4 1
H       6.56319      3.46101      5.31681         0.378203      1.065083      0.513592
H       0.81204      4.89834      6.01263        -1.190420     -1.471391     -0.501538
H       6.26130      4.09628      0.26711         1.371409     -0.142530     -2.334415
N       0.19671      4.04927      6.09350        -0.559375      0.548890      2.322274
