  # total energy =   -19.41833980 
CRSYTAL
PRIMVEC
     6.7020160000000004    0.0000000000000000    0.0000000000000000
     0.0000000000000000    6.7020160000000004    0.0000000000000000
     0.0000000000000000    0.0000000000000000    6.7020160000000004
PRESSURE
-0.153741 -0.266074 0.512115 0.159614 -0.094784 -0.257984
PRIMCOORD
4 1
H       6.63971      3.90225      5.71550        -0.157241     -0.424858     -0.334283
H       1.33832      3.63046      6.38973        -0.466169     -0.679257     -0.063659
H       0.06601      3.87837      0.54117        -0.409229     -0.072410      0.906324
N       0.34200      3.30500      6.45285         1.033112      1.176600     -0.508658
