  # total energy =   -19.23801329 
CRSYTAL
PRIMVEC
     6.7020160000000004    0.0000000000000000    0.0000000000000000
     0.0000000000000000    6.7020160000000004    0.0000000000000000
     0.0000000000000000    0.0000000000000000    6.7020160000000004
PRESSURE
-1.00192 -0.244599 -0.988777 0.544316 -0.1489 0.203992
PRIMCOORD
4 1
H       1.74551      1.51626      0.22184        -0.986176     -0.101875      0.226613
H       6.66032      1.62409      0.41980         1.028100     -0.381042      0.267570
H       1.01984      0.90289      1.69838        -0.508427      0.914349     -1.806128
N       0.89791      1.44261      0.79649         0.467125     -0.431740      1.312768
