  # total energy =   -19.43232410 
CRSYTAL
PRIMVEC
     6.7020160000000004    0.0000000000000000    0.0000000000000000
     0.0000000000000000    6.7020160000000004    0.0000000000000000
     0.0000000000000000    0.0000000000000000    6.7020160000000004
PRESSURE
0.165328 0.091968 0.906424 0.306893 -0.339248 -0.264835
PRIMCOORD
4 1
H       6.62895      3.86249      5.71969        -0.079383     -0.114721     -0.432602
H       1.33989      3.56350      6.42335         0.066058     -0.399330     -0.390659
H       0.09738      3.83000      0.55177        -0.872875      0.599436      1.733998
N       0.34556      3.29731      6.45935         0.886938     -0.084605     -0.910653
