  # total energy =   -19.32085875 
CRSYTAL
PRIMVEC
     6.7020160000000004    0.0000000000000000    0.0000000000000000
     0.0000000000000000    6.7020160000000004    0.0000000000000000
     0.0000000000000000    0.0000000000000000    6.7020160000000004
PRESSURE
0.221902 0.525816 0.132967 -0.014079 0.049394 0.257015
PRIMCOORD
4 1
H       0.89600      3.05889      6.51206        -0.048762      0.424579     -0.397370
H       0.27006      1.47850      6.61394        -0.714753     -0.873236     -0.401750
H       0.62127      2.38989      1.34507        -0.247728     -0.181328     -0.117669
N       0.68713      2.25057      0.34965         1.011342      0.629280      0.916075
