  # total energy =   -19.23373874 
CRSYTAL
PRIMVEC
     6.7020160000000004    0.0000000000000000    0.0000000000000000
     0.0000000000000000    6.7020160000000004    0.0000000000000000
     0.0000000000000000    0.0000000000000000    6.7020160000000004
PRESSURE
-0.820595 -0.096287 -1.10776 0.000947 0.622767 -0.262081
PRIMCOORD
4 1
H       6.55486      3.47210      5.34271        -0.069039      0.222552      0.624136
H       1.11149      4.39461      6.07879        -1.064775     -0.363421      0.514846
H       6.36100      3.88813      0.37992         1.113750      0.166783     -1.669428
N       0.23153      3.87037      6.20028         0.020506     -0.025749      0.531641
