  # total energy =   -19.46366508 
CRSYTAL
PRIMVEC
     6.7020160000000004    0.0000000000000000    0.0000000000000000
     0.0000000000000000    6.7020160000000004    0.0000000000000000
     0.0000000000000000    0.0000000000000000    6.7020160000000004
PRESSURE
-0.473713 -0.88054 -0.433258 -0.075467 0.043473 0.394615
PRIMCOORD
4 1
H       0.38699      4.01755      5.18472        -0.573243      1.337842      0.650449
H       6.23925      5.48816      5.04684         0.693402     -0.760903      0.551682
H       5.93256      4.46793      6.28199         0.454525      0.138877     -0.150363
N       0.02331      4.85558      5.73623        -0.574045     -0.715682     -1.052251
