  # total energy =   -19.41206393 
CRSYTAL
PRIMVEC
     6.7020160000000004    0.0000000000000000    0.0000000000000000
     0.0000000000000000    6.7020160000000004    0.0000000000000000
     0.0000000000000000    0.0000000000000000    6.7020160000000004
PRESSURE
-0.816353 -1.11842 -0.367716 0.205338 0.199889 0.336747
PRIMCOORD
4 1
H       0.39197      3.98823      5.22844        -0.562362      1.289787      0.156789
H       6.24613      5.52437      5.09294         0.868914     -1.182953      0.400863
H       5.91965      4.45356      6.30901         1.145408      0.497731     -0.640627
N       0.02834      4.83798      5.73749        -1.450923     -0.604651      0.082166
