  # total energy =   -19.12116583 
CRSYTAL
PRIMVEC
     6.7020160000000004    0.0000000000000000    0.0000000000000000
     0.0000000000000000    6.7020160000000004    0.0000000000000000
     0.0000000000000000    0.0000000000000000    6.7020160000000004
PRESSURE
-0.905795 0.34613 0.198376 0.553563 0.393181 -0.323653
PRIMCOORD
4 1
H       6.66872      3.27185      6.18834         0.566338     -0.032613     -0.451500
H       0.41802      1.79741      6.60106         0.742106     -0.814899     -1.277247
H       6.59468      2.66075      0.89104         1.557331      1.083745     -0.211687
N       0.63659      2.77120      0.09956        -2.866684     -0.236533      1.940497
