  # total energy =   -19.11754181 
CRSYTAL
PRIMVEC
     6.7020160000000004    0.0000000000000000    0.0000000000000000
     0.0000000000000000    6.7020160000000004    0.0000000000000000
     0.0000000000000000    0.0000000000000000    6.7020160000000004
PRESSURE
-0.731845 0.118961 0.445313 0.393653 0.333859 -0.517982
PRIMCOORD
4 1
H       6.65064      3.25748      6.17246         0.311236      0.278992     -0.776052
H       0.42832      1.80574      6.59300         0.953538     -0.247640     -1.122540
H       6.58961      2.67168      0.85916         1.301209      1.120339      0.170838
N       0.62918      2.80122      0.08744        -2.567322     -1.150844      1.727929
