  # total energy =   -19.45723903 
CRSYTAL
PRIMVEC
     6.7020160000000004    0.0000000000000000    0.0000000000000000
     0.0000000000000000    6.7020160000000004    0.0000000000000000
     0.0000000000000000    0.0000000000000000    6.7020160000000004
PRESSURE
0.47976 0.589105 0.826342 0.023501 -0.367629 -0.013624
PRIMCOORD
4 1
H       0.03479      3.72989      5.23178         0.122947     -0.468188     -1.069934
H       0.12763      5.35352      5.54133        -0.064576      0.873538     -0.662929
H       6.02650      4.32814      6.49567        -1.093734      0.093344      0.965421
N       0.12493      4.43773      5.92496         1.035581     -0.499076      0.767445
