  # total energy =   -19.39490701 
CRSYTAL
PRIMVEC
     6.7020160000000004    0.0000000000000000    0.0000000000000000
     0.0000000000000000    6.7020160000000004    0.0000000000000000
     0.0000000000000000    0.0000000000000000    6.7020160000000004
PRESSURE
-0.806513 0.043048 -0.938899 -0.176753 -0.061334 0.178204
PRIMCOORD
4 1
H       6.60976      3.68040      5.69638         0.436614      0.182526      0.480333
H       1.40881      3.17739      6.44934        -1.213516      0.358970     -0.274567
H       0.10226      3.63094      0.73794         0.186334     -0.177788     -1.466909
N       0.36959      3.25033      6.49986         0.591046     -0.364298      1.260264
