  # total energy =   -19.38346250 
CRSYTAL
PRIMVEC
     6.7020160000000004    0.0000000000000000    0.0000000000000000
     0.0000000000000000    6.7020160000000004    0.0000000000000000
     0.0000000000000000    0.0000000000000000    6.7020160000000004
PRESSURE
-0.006214 -0.369308 0.802521 0.219108 -0.096065 0.233888
PRIMCOORD
4 1
H       1.05581      2.77644      0.14564         0.451640     -0.726939     -0.070588
H       6.56098      1.79267      0.16613         0.112188     -0.603862     -0.176393
H       0.60748      2.13613      1.45952         0.038331     -0.098418      1.533720
N       0.82620      1.82783      0.53190        -0.601875      1.428516     -1.288057
