  # total energy =   -19.31002652 
CRSYTAL
PRIMVEC
     6.7020160000000004    0.0000000000000000    0.0000000000000000
     0.0000000000000000    6.7020160000000004    0.0000000000000000
     0.0000000000000000    0.0000000000000000    6.7020160000000004
PRESSURE
0.251684 -0.739866 0.555812 -0.368853 -0.282627 0.471758
PRIMCOORD
4 1
H       0.42375      3.86310      5.31609        -0.508100      1.313877     -0.220894
H       6.49531      5.57648      5.33313         0.242413     -0.427007     -0.746645
H       6.04946      4.45272      6.43531        -0.982643     -0.408918      0.887138
N       0.03715      4.70385      5.77890         1.248646     -0.478495      0.080743
