  # total energy =   -19.31934796 
CRSYTAL
PRIMVEC
     6.7020160000000004    0.0000000000000000    0.0000000000000000
     0.0000000000000000    6.7020160000000004    0.0000000000000000
     0.0000000000000000    0.0000000000000000    6.7020160000000004
PRESSURE
-0.335741 -0.606081 -0.482696 -0.346546 0.118429 -0.333097
PRIMCOORD
4 1
H       6.56762      3.48957      5.31257         0.244854      0.854962      0.219077
H       0.74191      4.93553      5.97748        -0.596229     -0.763889     -0.559947
H       6.26511      4.12209      0.20202         0.430565     -0.093405     -0.970667
N       0.19261      4.07382      6.08448        -0.078635      0.001762      1.312816
