  # total energy =   -19.29921558 
CRSYTAL
PRIMVEC
     6.7020160000000004    0.0000000000000000    0.0000000000000000
     0.0000000000000000    6.7020160000000004    0.0000000000000000
     0.0000000000000000    0.0000000000000000    6.7020160000000004
PRESSURE
-0.240498 -0.50934 -0.362759 0.314245 -0.169436 0.399039
PRIMCOORD
4 1
H       6.68083      3.48939      5.91914         0.288036     -0.739930      0.348584
H       1.06385      2.16441      6.53664        -0.756355      0.766401     -0.541228
H       0.13603      3.07198      0.91054        -0.205499      0.142899     -0.493564
N       0.48775      3.00805      6.66067         0.673746     -0.169008      0.685865
