  # total energy =   -19.18316855 
CRSYTAL
PRIMVEC
     6.7020160000000004    0.0000000000000000    0.0000000000000000
     0.0000000000000000    6.7020160000000004    0.0000000000000000
     0.0000000000000000    0.0000000000000000    6.7020160000000004
PRESSURE
1.1941 0.272212 1.49666 0.197473 -0.627523 0.322647
PRIMCOORD
4 1
H       6.51961      3.50685      5.39836        -0.440316     -0.181426     -0.550037
H       1.12713      4.21546      6.13896         1.286005      0.818616      0.183542
H       6.43424      3.84331      0.32226        -1.803727      0.380407      3.038072
N       0.24992      3.80283      6.23911         0.957251     -1.018262     -2.671661
