  # total energy =   -19.26915439 
CRSYTAL
PRIMVEC
     6.7020160000000004    0.0000000000000000    0.0000000000000000
     0.0000000000000000    6.7020160000000004    0.0000000000000000
     0.0000000000000000    0.0000000000000000    6.7020160000000004
PRESSURE
-0.911293 0.011446 -0.91114 -0.106409 0.428133 -0.157456
PRIMCOORD
4 1
H       6.45837      3.52916      5.41009         0.303287      0.292360      0.308723
H       1.21832      4.12183      6.21068        -0.938817     -0.126136      0.043223
H       6.40377      3.83764      0.44243         1.148711      0.048777     -1.624323
N       0.26891      3.73921      6.26123        -0.513114     -0.213740      1.272681
