  # total energy =   -19.21708599 
CRSYTAL
PRIMVEC
     6.7020160000000004    0.0000000000000000    0.0000000000000000
     0.0000000000000000    6.7020160000000004    0.0000000000000000
     0.0000000000000000    0.0000000000000000    6.7020160000000004
PRESSURE
0.689979 0.685673 1.25764 -0.274476 -0.590805 -0.044484
PRIMCOORD
4 1
H       0.39321      3.92372      5.35568         0.564496     -0.542955     -1.597749
H       6.40761      5.55199      5.31381        -0.048977      0.859772     -1.715558
H       6.02869      4.45909      6.36394        -1.474354     -0.569311      1.537508
N       0.03503      4.74486      5.75922         0.959419      0.251792      1.775451
