  # total energy =   -19.26316057 
CRSYTAL
PRIMVEC
     6.7020160000000004    0.0000000000000000    0.0000000000000000
     0.0000000000000000    6.7020160000000004    0.0000000000000000
     0.0000000000000000    0.0000000000000000    6.7020160000000004
PRESSURE
0.442223 1.34146 0.462418 0.013251 -0.309267 -0.183042
PRIMCOORD
4 1
H       0.37262      3.91781      5.21496         0.108711     -1.699074     -0.493212
H       0.03244      5.44580      5.33876        -0.557996      1.551979     -0.230755
H       6.10103      4.41710      6.54367        -1.103168     -0.362373      0.622429
N       0.05028      4.60135      5.83651         1.552544      0.509735      0.102608
