  # total energy =   -19.39039155 
CRSYTAL
PRIMVEC
     6.7020160000000004    0.0000000000000000    0.0000000000000000
     0.0000000000000000    6.7020160000000004    0.0000000000000000
     0.0000000000000000    0.0000000000000000    6.7020160000000004
PRESSURE
-0.11032 -0.023717 0.88194 0.015425 0.062403 -0.195789
PRIMCOORD
4 1
H       1.44613      2.41931      0.17387        -0.588543     -0.125584     -0.009121
H       6.60741      1.62339      0.19870        -0.187464      0.327162     -0.041507
H       0.86668      1.76084      1.57598        -0.216809      0.111138      1.696631
N       0.81863      1.73833      0.60086         0.993099     -0.313092     -1.645298
