  # total energy =   -19.35954091 
CRSYTAL
PRIMVEC
     6.7020160000000004    0.0000000000000000    0.0000000000000000
     0.0000000000000000    6.7020160000000004    0.0000000000000000
     0.0000000000000000    0.0000000000000000    6.7020160000000004
PRESSURE
0.099155 -0.355971 0.95475 0.205568 -0.094781 0.261058
PRIMCOORD
4 1
H       1.04481      2.78489      0.15217         0.512725     -0.689698     -0.199540
H       6.56467      1.79414      0.16621        -0.073613     -0.639039     -0.267018
H       0.60421      2.15112      1.44865        -0.011722     -0.116912      1.771575
N       0.82550      1.83137      0.52938        -0.427164      1.445048     -1.306505
