  # total energy =   -19.40437631 
CRSYTAL
PRIMVEC
     6.7020160000000004    0.0000000000000000    0.0000000000000000
     0.0000000000000000    6.7020160000000004    0.0000000000000000
     0.0000000000000000    0.0000000000000000    6.7020160000000004
PRESSURE
-0.108275 -0.37867 0.630712 0.226699 -0.092349 0.208136
PRIMCOORD
4 1
H       1.06684      2.76774      0.13919         0.391350     -0.754232      0.052950
H       6.55744      1.79086      0.16594         0.288124     -0.568263     -0.087914
H       0.61071      2.12141      1.47106         0.093599     -0.088138      1.259537
N       0.82686      1.82442      0.53431        -0.772837      1.409902     -1.225441
