  # total energy =   -19.30373360 
CRSYTAL
PRIMVEC
     6.7020160000000004    0.0000000000000000    0.0000000000000000
     0.0000000000000000    6.7020160000000004    0.0000000000000000
     0.0000000000000000    0.0000000000000000    6.7020160000000004
PRESSURE
0.052517 -0.343695 -0.37001 -0.347213 -0.065353 -0.102047
PRIMCOORD
4 1
H       0.86466      3.11912      6.50132        -0.172755     -0.061729     -0.367221
H       0.31402      1.44297      6.59756         0.021455      0.615549      0.275443
H       0.61131      2.44351      1.33811        -0.203036     -0.414720     -0.740714
N       0.67492      2.28888      0.32880         0.353954     -0.139115      0.832286
