  # total energy =   -19.27271181 
CRSYTAL
PRIMVEC
     6.7020160000000004    0.0000000000000000    0.0000000000000000
     0.0000000000000000    6.7020160000000004    0.0000000000000000
     0.0000000000000000    0.0000000000000000    6.7020160000000004
PRESSURE
0.352754 0.238746 0.949302 0.12322 3.6e-05 -0.217703
PRIMCOORD
4 1
H       6.67690      3.58694      5.73426        -0.497356      0.467170     -0.236902
H       1.33528      2.90938      6.36291         0.342153      0.035964      0.603307
H       0.06260      3.45514      0.71630        -0.392061      0.713829      1.987964
N       0.39634      3.20320      6.55023         0.546948     -1.216669     -2.354581
