  # total energy =   -19.47560334 
CRSYTAL
PRIMVEC
     6.7020160000000004    0.0000000000000000    0.0000000000000000
     0.0000000000000000    6.7020160000000004    0.0000000000000000
     0.0000000000000000    0.0000000000000000    6.7020160000000004
PRESSURE
-0.831321 -0.146769 -0.712555 -0.204248 0.11132 -0.001217
PRIMCOORD
4 1
H       6.47384      3.81225      5.51862         0.474858     -0.030532      0.477399
H       1.26514      3.94753      6.30866        -1.014955     -0.275515     -0.083886
H       6.52840      3.95371      0.48439         0.672200     -0.504020     -1.125416
N       0.31184      3.51789      6.35236        -0.131888      0.809712      0.732726
