  # total energy =   -19.41096169 
CRSYTAL
PRIMVEC
     6.7020160000000004    0.0000000000000000    0.0000000000000000
     0.0000000000000000    6.7020160000000004    0.0000000000000000
     0.0000000000000000    0.0000000000000000    6.7020160000000004
PRESSURE
0.056992 0.47308 -0.565627 0.136774 0.212468 0.070303
PRIMCOORD
4 1
H       0.93442      2.89663      6.55698         0.003753      0.897460      0.328186
H       6.69675      1.57741      0.00960        -0.171509     -0.157846     -0.166960
H       0.52954      2.19182      1.43027         0.327214      0.701206     -0.923539
N       0.75863      2.09392      0.42633        -0.160221     -1.440562      0.762791
