  # total energy =   -19.38147168 
CRSYTAL
PRIMVEC
     6.7020160000000004    0.0000000000000000    0.0000000000000000
     0.0000000000000000    6.7020160000000004    0.0000000000000000
     0.0000000000000000    0.0000000000000000    6.7020160000000004
PRESSURE
0.748649 0.783105 0.172073 -0.4005 -0.329526 -0.118745
PRIMCOORD
4 1
H       0.35036      4.15262      5.12169         0.637514     -0.832070      0.399866
H       6.25270      5.37568      4.96349        -0.523795      1.132319     -0.072214
H       5.96315      4.49610      6.22788        -1.259286     -0.777026      1.043654
N       0.01074      4.89596      5.72723         1.145081      0.476308     -1.371491
