  # total energy =   -19.45911516 
CRSYTAL
PRIMVEC
     6.7020160000000004    0.0000000000000000    0.0000000000000000
     0.0000000000000000    6.7020160000000004    0.0000000000000000
     0.0000000000000000    0.0000000000000000    6.7020160000000004
PRESSURE
0.645628 0.240402 0.485922 0.1242 0.277206 0.145735
PRIMCOORD
4 1
H       1.31368      2.51542      0.12143         0.204680      0.476716      0.180013
H       6.61594      1.68985      0.20010        -1.232115     -0.070413     -0.533773
H       0.75408      1.84678      1.57030         0.146631      0.429627      0.815087
N       0.82267      1.76753      0.58001         0.880407     -0.835888     -0.459471
