  # total energy =   -19.27159309 
CRSYTAL
PRIMVEC
     6.7020160000000004    0.0000000000000000    0.0000000000000000
     0.0000000000000000    6.7020160000000004    0.0000000000000000
     0.0000000000000000    0.0000000000000000    6.7020160000000004
PRESSURE
-0.841568 -0.166136 -0.814425 0.429067 -0.102707 0.142932
PRIMCOORD
4 1
H       1.73608      1.54004      0.21532        -0.826612     -0.131413      0.223560
H       6.66228      1.62293      0.41415         0.881769     -0.321689      0.228218
H       1.01053      0.92732      1.69112        -0.373982      0.682465     -1.464236
N       0.89643      1.44900      0.79271         0.318977     -0.229417      1.013182
