  # total energy =   -19.29881780 
CRSYTAL
PRIMVEC
     6.7020160000000004    0.0000000000000000    0.0000000000000000
     0.0000000000000000    6.7020160000000004    0.0000000000000000
     0.0000000000000000    0.0000000000000000    6.7020160000000004
PRESSURE
0.359884 -0.556855 0.710871 -0.407274 -0.379199 0.442083
PRIMCOORD
4 1
H       0.42040      3.86879      5.32227        -0.399991      1.165954     -0.372537
H       6.48459      5.57316      5.33330         0.214707     -0.204110     -0.907464
H       6.05006      4.45470      6.42383        -1.213697     -0.492724      1.138627
N       0.03668      4.70878      5.77649         1.399406     -0.470233      0.141605
