  # total energy =   -19.40499536 
CRSYTAL
PRIMVEC
     6.7020160000000004    0.0000000000000000    0.0000000000000000
     0.0000000000000000    6.7020160000000004    0.0000000000000000
     0.0000000000000000    0.0000000000000000    6.7020160000000004
PRESSURE
-0.660333 0.134629 -0.158946 0.068719 -0.04283 0.118137
PRIMCOORD
4 1
H       6.62910      3.64822      5.70441         0.197103      0.214714      0.339988
H       1.40029      3.09105      6.42042        -1.132330      0.418700      0.071310
H       0.09340      3.56953      0.72071        -0.031216      0.378504      0.000801
N       0.37651      3.23746      6.51623         0.967028     -1.012780     -0.412272
