  # total energy =   -19.31888643 
CRSYTAL
PRIMVEC
     6.7020160000000004    0.0000000000000000    0.0000000000000000
     0.0000000000000000    6.7020160000000004    0.0000000000000000
     0.0000000000000000    0.0000000000000000    6.7020160000000004
PRESSURE
0.156154 -0.983333 0.029564 0.143064 -0.222726 -0.04336
PRIMCOORD
4 1
H       0.51080      3.29819      6.26829        -0.127369     -0.898546      0.911215
H       0.51106      1.56342      6.51668        -0.096088      1.213649      0.608414
H       0.39702      2.63480      1.17449        -0.571769      0.183724      0.983351
N       0.63141      2.50938      0.22736         0.794455     -0.499291     -2.503053
