  # total energy =   -19.32336712 
CRSYTAL
PRIMVEC
     6.7020160000000004    0.0000000000000000    0.0000000000000000
     0.0000000000000000    6.7020160000000004    0.0000000000000000
     0.0000000000000000    0.0000000000000000    6.7020160000000004
PRESSURE
-0.261715 0.118642 0.557338 0.401422 -0.016811 -0.209336
PRIMCOORD
4 1
H       0.38150      3.96972      5.33227         0.556738     -0.815278     -1.668611
H       6.31251      5.55136      5.22451         0.400504     -0.411539     -0.907180
H       5.95468      4.44673      6.34136         0.691272      0.353005     -0.218958
N       0.03471      4.79085      5.74327        -1.648508      0.872737      2.795653
