  # total energy =   -19.35952218 
CRSYTAL
PRIMVEC
     6.7020160000000004    0.0000000000000000    0.0000000000000000
     0.0000000000000000    6.7020160000000004    0.0000000000000000
     0.0000000000000000    0.0000000000000000    6.7020160000000004
PRESSURE
-0.585038 -0.412451 0.232303 0.449763 0.127109 -0.039806
PRIMCOORD
4 1
H       0.38490      3.97330      5.30720         0.167136     -0.101987     -1.172128
H       6.28713      5.55066      5.18640         0.631680     -0.881503     -0.448180
H       5.93523      4.44468      6.33628         1.122554      0.532968     -0.571179
N       0.03378      4.80503      5.74060        -1.921372      0.449522      2.191712
