  # total energy =   -19.38070584 
CRSYTAL
PRIMVEC
     6.7020160000000004    0.0000000000000000    0.0000000000000000
     0.0000000000000000    6.7020160000000004    0.0000000000000000
     0.0000000000000000    0.0000000000000000    6.7020160000000004
PRESSURE
0.79328 0.142501 0.901556 0.620428 -0.304074 -0.060369
PRIMCOORD
4 1
H       6.55763      3.91542      5.58059        -0.298222     -0.570630     -0.163526
H       1.21135      3.91530      6.27019         1.070778      0.048467      0.343409
H       6.59239      3.94984      0.40725        -0.947465      0.980815      2.217769
N       0.31924      3.46167      6.38348         0.175345     -0.459092     -2.397562
