  # total energy =   -19.46976910 
CRSYTAL
PRIMVEC
     6.7020160000000004    0.0000000000000000    0.0000000000000000
     0.0000000000000000    6.7020160000000004    0.0000000000000000
     0.0000000000000000    0.0000000000000000    6.7020160000000004
PRESSURE
-0.065397 -0.366553 -0.038839 -0.178582 -0.37483 -0.035439
PRIMCOORD
4 1
H       6.64777      3.25740      6.01511         0.518162      0.133116      0.544436
H       0.61400      1.88240      6.43966         0.267233      0.744520      0.520807
H       6.68412      2.85561      0.86799        -0.288492     -0.001559      0.621209
N       0.58154      2.88408      0.05518        -0.496265     -0.875539     -1.686625
