  # total energy =   -19.19895811 
CRSYTAL
PRIMVEC
     6.7020160000000004    0.0000000000000000    0.0000000000000000
     0.0000000000000000    6.7020160000000004    0.0000000000000000
     0.0000000000000000    0.0000000000000000    6.7020160000000004
PRESSURE
-0.764869 -0.635348 -1.04636 -0.283305 0.492452 -0.463377
PRIMCOORD
4 1
H       6.56763      3.45169      5.33623         0.228609      0.647826      0.147381
H       0.87480      4.80608      6.04605        -1.016131     -1.097852     -0.471977
H       6.29434      4.05674      0.29062         1.179192     -0.118886     -2.133481
N       0.20126      4.01661      6.11071        -0.391356      0.568689      2.457578
