  # total energy =   -19.44059900 
CRSYTAL
PRIMVEC
     6.7020160000000004    0.0000000000000000    0.0000000000000000
     0.0000000000000000    6.7020160000000004    0.0000000000000000
     0.0000000000000000    0.0000000000000000    6.7020160000000004
PRESSURE
-0.507527 -0.111498 -1.07696 0.179792 0.09361 0.056155
PRIMCOORD
4 1
H       1.18223      2.65472      0.09295         0.043595     -0.314414      0.731260
H       6.55225      1.75537      0.17044         0.904602     -0.236032      0.354492
H       0.65355      1.97692      1.58911         0.526265      0.098752     -1.495626
N       0.82971      1.79502      0.55554        -1.474330      0.453230      0.409925
