  # total energy =   -19.31180161 
CRSYTAL
PRIMVEC
     6.7020160000000004    0.0000000000000000    0.0000000000000000
     0.0000000000000000    6.7020160000000004    0.0000000000000000
     0.0000000000000000    0.0000000000000000    6.7020160000000004
PRESSURE
-0.278202 -0.694401 -0.340535 0.043131 -0.240435 -0.528413
PRIMCOORD
4 1
H       0.93201      2.99239      6.49111        -0.390032     -0.446215      0.915686
H       0.10604      1.46610      6.61655         0.919920      1.386326      0.965270
H       0.58913      2.27123      1.37516        -0.251995      0.480591      0.402512
N       0.72049      2.18467      0.39122        -0.278112     -1.420498     -2.283927
