  # total energy =   -19.38519354 
CRSYTAL
PRIMVEC
     6.7020160000000004    0.0000000000000000    0.0000000000000000
     0.0000000000000000    6.7020160000000004    0.0000000000000000
     0.0000000000000000    0.0000000000000000    6.7020160000000004
PRESSURE
-0.825492 -0.936354 -0.132793 0.375628 0.219634 0.186852
PRIMCOORD
4 1
H       0.39000      3.97748      5.26804        -0.299530      0.781593     -0.449269
H       6.26164      5.54256      5.13706         0.829530     -1.203972      0.063629
H       5.92078      4.44649      6.32549         1.323725      0.603469     -0.751321
N       0.03155      4.82239      5.73858        -1.853159     -0.181411      1.136315
