  # total energy =   -19.44160363 
CRSYTAL
PRIMVEC
     6.7020160000000004    0.0000000000000000    0.0000000000000000
     0.0000000000000000    6.7020160000000004    0.0000000000000000
     0.0000000000000000    0.0000000000000000    6.7020160000000004
PRESSURE
0.429604 0.230535 0.854682 0.243328 -0.456834 -0.190624
PRIMCOORD
4 1
H       6.61622      3.81744      5.71893         0.043209      0.149547     -0.392709
H       1.34299      3.48492      6.45521         0.609626     -0.136077     -0.667309
H       0.12093      3.78410      0.58483        -0.997888      0.688726      1.603905
N       0.35024      3.28875      6.46574         0.345084     -0.702050     -0.543342
