  # total energy =   -19.35805685 
CRSYTAL
PRIMVEC
     6.7020160000000004    0.0000000000000000    0.0000000000000000
     0.0000000000000000    6.7020160000000004    0.0000000000000000
     0.0000000000000000    0.0000000000000000    6.7020160000000004
PRESSURE
0.143846 -0.480383 0.825961 -0.073564 -0.339408 0.267251
PRIMCOORD
4 1
H       6.70182      3.39940      5.93941        -0.217269     -0.159461      0.046978
H       0.95707      2.06407      6.45817        -0.744819      0.945822      0.304614
H       0.11860      3.03260      0.87554        -1.107857     -0.038131      1.905956
N       0.50996      2.97034      6.69603         2.070317     -0.748570     -2.257994
