  # total energy =   -19.24862302 
CRSYTAL
PRIMVEC
     6.7020160000000004    0.0000000000000000    0.0000000000000000
     0.0000000000000000    6.7020160000000004    0.0000000000000000
     0.0000000000000000    0.0000000000000000    6.7020160000000004
PRESSURE
0.688343 0.986949 0.750877 0.199295 -0.689628 0.34825
PRIMCOORD
4 1
H       6.51350      3.80796      5.19737         0.133157     -1.311236     -0.621966
H       0.16096      5.15277      5.61230         0.955824      1.444856     -0.077928
H       6.04403      4.33707      6.51627        -1.618800     -0.234349      1.797608
N       0.19446      4.23677      6.03171         0.529777      0.100272     -1.098720
