  # total energy =   -19.47792302 
CRSYTAL
PRIMVEC
     6.7020160000000004    0.0000000000000000    0.0000000000000000
     0.0000000000000000    6.7020160000000004    0.0000000000000000
     0.0000000000000000    0.0000000000000000    6.7020160000000004
PRESSURE
0.239127 -0.105349 -0.185822 -0.385544 -0.226094 0.270356
PRIMCOORD
4 1
H       0.37052      4.07736      5.14582        -0.153882      0.598815      0.792709
H       6.24408      5.43163      5.00275         0.169604      0.158835      0.335118
H       5.95503      4.48670      6.24838        -0.752145     -0.490394      0.706918
N       0.01667      4.87544      5.73320         0.736101     -0.266431     -1.834818
