  # total energy =   -19.44050105 
CRSYTAL
PRIMVEC
     6.7020160000000004    0.0000000000000000    0.0000000000000000
     0.0000000000000000    6.7020160000000004    0.0000000000000000
     0.0000000000000000    0.0000000000000000    6.7020160000000004
PRESSURE
-0.579507 -0.682909 -0.917126 0.572525 0.145101 0.084474
PRIMCOORD
4 1
H       1.62687      1.05736      0.14583        -0.651509      0.053422      0.771155
H       0.03935      1.46874      0.46474         0.693634     -0.281784      0.396554
H       0.87494      0.46817      1.57603         0.129622      1.500051     -1.442994
N       0.96625      1.31547      0.91466        -0.170748     -1.271320      0.274991
