  # total energy =   -19.29229211 
CRSYTAL
PRIMVEC
     6.7020160000000004    0.0000000000000000    0.0000000000000000
     0.0000000000000000    6.7020160000000004    0.0000000000000000
     0.0000000000000000    0.0000000000000000    6.7020160000000004
PRESSURE
-0.65625 0.296164 0.212634 0.073482 -0.149091 0.391065
PRIMCOORD
4 1
H       6.50966      3.77989      5.19571         0.486658     -0.644812     -0.246549
H       0.10047      5.21857      5.60702         0.931161      0.309322     -0.020652
H       5.95497      4.36496      6.49670         1.017656     -0.545084      0.398592
N       0.19448      4.27207      6.01241        -2.435091      0.880028     -0.132240
