  # total energy =   -19.47934501 
CRSYTAL
PRIMVEC
     6.7020160000000004    0.0000000000000000    0.0000000000000000
     0.0000000000000000    6.7020160000000004    0.0000000000000000
     0.0000000000000000    0.0000000000000000    6.7020160000000004
PRESSURE
0.194897 0.202748 -0.596565 0.12489 0.226168 0.130253
PRIMCOORD
4 1
H       1.25455      2.57032      0.10115         0.212774      0.361765      0.433740
H       6.59154      1.72027      0.18849        -0.338457     -0.135998     -0.130673
H       0.70436      1.89699      1.59515         0.384633      0.343741     -0.934856
N       0.82619      1.77977      0.56888        -0.260210     -0.568808      0.632797
