  # total energy =   -19.31816630 
CRSYTAL
PRIMVEC
     6.7020160000000004    0.0000000000000000    0.0000000000000000
     0.0000000000000000    6.7020160000000004    0.0000000000000000
     0.0000000000000000    0.0000000000000000    6.7020160000000004
PRESSURE
0.14892 -0.980904 0.036365 0.124555 -0.199664 -0.055213
PRIMCOORD
4 1
H       0.52343      3.29596      6.27518        -0.147949     -0.850575      0.839911
H       0.50975      1.55713      6.52207        -0.083708      1.244430      0.577222
H       0.40532      2.62811      1.17977        -0.531946      0.193258      0.924282
N       0.63162      2.50457      0.22923         0.762985     -0.587685     -2.341403
