  # total energy =   -19.49974400 
CRSYTAL
PRIMVEC
     6.7020160000000004    0.0000000000000000    0.0000000000000000
     0.0000000000000000    6.7020160000000004    0.0000000000000000
     0.0000000000000000    0.0000000000000000    6.7020160000000004
PRESSURE
0.080036 -0.182225 0.02902 -0.346635 -0.069808 0.029589
PRIMCOORD
4 1
H       0.17998      3.27805      6.21894         0.016265      0.180309     -0.170478
H       0.49002      1.70104      6.46020        -0.069905      0.429799      0.607245
H       0.13204      2.75801      1.03829        -0.171349     -0.411796      0.234333
N       0.63488      2.64028      0.16610         0.224701     -0.197136     -0.671434
