  # total energy =   -19.40132939 
CRSYTAL
PRIMVEC
     6.7020160000000004    0.0000000000000000    0.0000000000000000
     0.0000000000000000    6.7020160000000004    0.0000000000000000
     0.0000000000000000    0.0000000000000000    6.7020160000000004
PRESSURE
0.733185 0.270929 0.59951 0.018464 -0.392714 0.102478
PRIMCOORD
4 1
H       6.44121      3.69241      5.49980         0.093262      0.380104     -0.448397
H       1.21295      3.96050      6.33013         1.166800      0.661726     -0.594039
H       6.53412      3.89902      0.43353        -0.821869      0.422357      0.952967
N       0.30077      3.59036      6.32349        -0.437022     -1.465215      0.088865
