  # total energy =   -19.20755449 
CRSYTAL
PRIMVEC
     6.7020160000000004    0.0000000000000000    0.0000000000000000
     0.0000000000000000    6.7020160000000004    0.0000000000000000
     0.0000000000000000    0.0000000000000000    6.7020160000000004
PRESSURE
-1.35213 -1.27772 -0.482121 -0.276421 0.149338 0.041862
PRIMCOORD
4 1
H       6.55327      3.68993      5.18410         0.847968      1.214495      0.793272
H       0.07566      5.34411      5.59743         0.571412     -1.595645      0.012862
H       5.89424      4.36805      6.49356         2.258464     -0.314427     -0.553237
N       0.17765      4.34173      5.97575        -3.677569      0.695070     -0.252592
