  # total energy =   -19.34283852 
CRSYTAL
PRIMVEC
     6.7020160000000004    0.0000000000000000    0.0000000000000000
     0.0000000000000000    6.7020160000000004    0.0000000000000000
     0.0000000000000000    0.0000000000000000    6.7020160000000004
PRESSURE
-0.012995 0.625389 -0.176152 0.303311 0.170161 -0.245149
PRIMCOORD
4 1
H       0.39454      3.91102      5.23580         0.057198     -1.263542     -0.445767
H       6.69384      5.49160      5.32931        -0.433372      0.338694      0.124643
H       6.07188      4.42045      6.55811         0.202725     -0.003758     -0.737841
N       0.04775      4.62004      5.82315         0.173704      0.929243      1.059919
