  # total energy =   -19.20525255 
CRSYTAL
PRIMVEC
     6.7020160000000004    0.0000000000000000    0.0000000000000000
     0.0000000000000000    6.7020160000000004    0.0000000000000000
     0.0000000000000000    0.0000000000000000    6.7020160000000004
PRESSURE
0.053645 0.069882 -0.704278 0.265336 0.012749 -0.061295
PRIMCOORD
4 1
H       6.67555      3.52863      5.91625         0.082430     -0.386929     -0.276056
H       1.11722      2.28311      6.57369         0.191412     -0.342839     -0.997669
H       0.13612      3.11197      0.91971         0.098127      0.202285     -1.582053
N       0.47202      3.03872      6.63381        -0.371755      0.526362      2.856447
