  # total energy =   -19.25955425 
CRSYTAL
PRIMVEC
     6.7020160000000004    0.0000000000000000    0.0000000000000000
     0.0000000000000000    6.7020160000000004    0.0000000000000000
     0.0000000000000000    0.0000000000000000    6.7020160000000004
PRESSURE
-0.998536 0.001648 -0.985923 -0.124634 0.433859 -0.178742
PRIMCOORD
4 1
H       6.45521      3.53106      5.41049         0.350823      0.315012      0.363158
H       1.22272      4.11783      6.21503        -1.049074     -0.164694      0.023634
H       6.40402      3.83825      0.44714         1.199677      0.030566     -1.725545
N       0.26982      3.73560      6.26252        -0.501289     -0.179794      1.339230
