  # total energy =   -19.39339771 
CRSYTAL
PRIMVEC
     6.7020160000000004    0.0000000000000000    0.0000000000000000
     0.0000000000000000    6.7020160000000004    0.0000000000000000
     0.0000000000000000    0.0000000000000000    6.7020160000000004
PRESSURE
-0.676435 -0.634614 -1.14074 0.135983 0.750591 -0.234925
PRIMCOORD
4 1
H       6.56489      3.66052      5.21100        -0.127118      0.214836      0.672451
H       0.47955      5.11156      5.72107        -0.634614     -1.146419      0.735925
H       6.10188      4.21987      0.09117         1.483076      0.064588     -1.800731
N       0.19339      4.15093      6.06025        -0.720944      0.866688      0.392935
