  # total energy =   -19.27716642 
CRSYTAL
PRIMVEC
     6.7020160000000004    0.0000000000000000    0.0000000000000000
     0.0000000000000000    6.7020160000000004    0.0000000000000000
     0.0000000000000000    0.0000000000000000    6.7020160000000004
PRESSURE
0.211749 0.242912 1.09191 0.207902 -0.08026 -0.177643
PRIMCOORD
4 1
H       6.67030      3.59526      5.72955        -0.411710      0.429400     -0.177106
H       1.34770      2.93846      6.37013         0.046723      0.148417      0.558853
H       0.07035      3.46969      0.70634        -0.552711      0.888783      2.349308
N       0.39263      3.20948      6.54546         0.917119     -1.466548     -2.731241
