  # total energy =   -19.13487307 
CRSYTAL
PRIMVEC
     6.7020160000000004    0.0000000000000000    0.0000000000000000
     0.0000000000000000    6.7020160000000004    0.0000000000000000
     0.0000000000000000    0.0000000000000000    6.7020160000000004
PRESSURE
-0.941443 -0.883347 -1.31619 -0.387001 0.582491 -0.602265
PRIMCOORD
4 1
H       6.56444      3.45253      5.32611         0.335035      0.909056      0.397968
H       0.85122      4.85233      6.03289        -1.232600     -1.419620     -0.483301
H       6.27449      4.07487      0.28897         1.431734     -0.138371     -2.472674
N       0.19937      4.03101      6.10239        -0.534000      0.649805      2.557594
