  # total energy =   -19.40827833 
CRSYTAL
PRIMVEC
     6.7020160000000004    0.0000000000000000    0.0000000000000000
     0.0000000000000000    6.7020160000000004    0.0000000000000000
     0.0000000000000000    0.0000000000000000    6.7020160000000004
PRESSURE
-0.72011 0.114536 -0.357103 0.016136 -0.03705 0.140182
PRIMCOORD
4 1
H       6.62461      3.65483      5.70220         0.258063      0.202039      0.384479
H       1.40359      3.10890      6.42665        -1.189491      0.415574     -0.000679
H       0.09517      3.58243      0.72523         0.041306      0.250801     -0.376166
N       0.37497      3.24026      6.51272         0.890518     -0.869401     -0.007634
