  # total energy =   -19.26828808 
CRSYTAL
PRIMVEC
     6.7020160000000004    0.0000000000000000    0.0000000000000000
     0.0000000000000000    6.7020160000000004    0.0000000000000000
     0.0000000000000000    0.0000000000000000    6.7020160000000004
PRESSURE
0.200571 0.138935 1.19097 -0.277049 0.172516 -0.003362
PRIMCOORD
4 1
H       1.61518      2.03061      0.19841        -0.043923      0.143809     -0.144849
H       6.65128      1.56622      0.26346        -0.458300      0.073084     -0.181595
H       0.96513      1.41356      1.61938         0.112730     -0.444683      2.258066
N       0.84571      1.61480      0.68698         0.390244      0.228727     -1.930639
