  # total energy =   -19.41511221 
CRSYTAL
PRIMVEC
     6.7020160000000004    0.0000000000000000    0.0000000000000000
     0.0000000000000000    6.7020160000000004    0.0000000000000000
     0.0000000000000000    0.0000000000000000    6.7020160000000004
PRESSURE
0.588886 0.158863 1.12147 0.112567 0.256738 0.06658
PRIMCOORD
4 1
H       1.36255      2.47853      0.14007        -0.004701      0.303587      0.078929
H       6.62060      1.66507      0.20297        -1.227803      0.039073     -0.539510
H       0.79529      1.81296      1.55842         0.005040      0.375167      2.012479
N       0.82060      1.75720      0.58842         1.226968     -0.718548     -1.550480
