  # total energy =   -19.18303467 
CRSYTAL
PRIMVEC
     6.7020160000000004    0.0000000000000000    0.0000000000000000
     0.0000000000000000    6.7020160000000004    0.0000000000000000
     0.0000000000000000    0.0000000000000000    6.7020160000000004
PRESSURE
-1.03431 -0.183733 -1.43223 -0.040806 0.746594 -0.3626
PRIMCOORD
4 1
H       6.56061      3.46543      5.33401         0.000629      0.323023      0.795785
H       1.10217      4.43416      6.07068        -1.313095     -0.553935      0.510427
H       6.34940      3.90060      0.38677         1.387462      0.147270     -2.158348
N       0.22765      3.88524      6.19138        -0.074617      0.083977      0.852542
