  # total energy =   -19.18416574 
CRSYTAL
PRIMVEC
     6.7020160000000004    0.0000000000000000    0.0000000000000000
     0.0000000000000000    6.7020160000000004    0.0000000000000000
     0.0000000000000000    0.0000000000000000    6.7020160000000004
PRESSURE
-0.604149 -1.38559 -0.449229 -0.098162 -0.110862 -0.306217
PRIMCOORD
4 1
H       1.47001      0.69347      0.16834         0.080861      1.054875      0.697272
H       0.09935      1.39568      0.57531         0.974559      0.309824      0.548764
H       0.70445      0.17826      1.41143         0.764042      2.198910     -0.022539
N       1.03981      1.16843      1.02246        -1.818989     -3.564048     -1.223039
