  # total energy =   -19.24294504 
CRSYTAL
PRIMVEC
     6.7020160000000004    0.0000000000000000    0.0000000000000000
     0.0000000000000000    6.7020160000000004    0.0000000000000000
     0.0000000000000000    0.0000000000000000    6.7020160000000004
PRESSURE
0.710026 0.724937 1.47842 -0.854077 -0.04151 -0.04646
PRIMCOORD
4 1
H       1.70998      1.28795      0.26066         0.455471      0.107216     -1.164893
H       0.03688      1.57750      0.48279        -1.149950     -0.011122     -0.707266
H       1.00683      0.76540      1.57174        -0.317432     -2.123252      2.530591
N       0.92195      1.37641      0.84902         1.012068      2.026031     -0.658215
