  # total energy =   -19.48428935 
CRSYTAL
PRIMVEC
     6.7020160000000004    0.0000000000000000    0.0000000000000000
     0.0000000000000000    6.7020160000000004    0.0000000000000000
     0.0000000000000000    0.0000000000000000    6.7020160000000004
PRESSURE
-0.121732 -0.164152 -0.416832 -0.197741 -0.176879 -0.0003
PRIMCOORD
4 1
H       6.65644      3.26137      5.99620         0.409024      0.167359      0.671890
H       0.64797      1.90853      6.42204         0.152327      0.384619      0.630738
H       6.69093      2.88449      0.89008         0.031476     -0.141665     -0.068721
N       0.57457      2.89238      0.04957        -0.592133     -0.409654     -1.234210
