  # total energy =   -19.10093205 
CRSYTAL
PRIMVEC
     6.7020160000000004    0.0000000000000000    0.0000000000000000
     0.0000000000000000    6.7020160000000004    0.0000000000000000
     0.0000000000000000    0.0000000000000000    6.7020160000000004
PRESSURE
-0.724426 -1.61477 -0.631657 -0.060235 -0.077626 -0.35962
PRIMCOORD
4 1
H       1.47129      0.70508      0.15488        -0.014241      1.127457      0.941041
H       0.08718      1.38441      0.55672         1.117180      0.332787      0.656715
H       0.70222      0.17460      1.41364         0.895071      2.543495     -0.204782
N       1.03638      1.18464      1.01612        -1.998003     -4.005266     -1.393190
