  # total energy =   -19.30548536 
CRSYTAL
PRIMVEC
     6.7020160000000004    0.0000000000000000    0.0000000000000000
     0.0000000000000000    6.7020160000000004    0.0000000000000000
     0.0000000000000000    0.0000000000000000    6.7020160000000004
PRESSURE
-0.893027 0.012671 -0.742843 -0.158432 0.1076 -0.186607
PRIMCOORD
4 1
H       6.43681      3.55661      5.42449         0.520872      0.378208      0.433501
H       1.23459      4.07669      6.25374        -1.035087     -0.138452     -0.206110
H       6.43466      3.84395      0.44791         0.713340      0.025507     -1.165611
N       0.27734      3.70259      6.27659        -0.198617     -0.266083      0.938933
