  # total energy =   -19.49512154 
CRSYTAL
PRIMVEC
     6.7020160000000004    0.0000000000000000    0.0000000000000000
     0.0000000000000000    6.7020160000000004    0.0000000000000000
     0.0000000000000000    0.0000000000000000    6.7020160000000004
PRESSURE
-0.710903 -0.140384 -0.55412 -0.108021 0.062783 -0.011734
PRIMCOORD
4 1
H       6.48256      3.82672      5.52413         0.427593     -0.117087      0.468824
H       1.26152      3.94492      6.30327        -0.893944     -0.282068     -0.010681
H       6.53548      3.95362      0.47493         0.519887     -0.383860     -0.787021
N       0.31274      3.51059      6.35645        -0.053612      0.782863      0.329496
