  # total energy =   -19.32996711 
CRSYTAL
PRIMVEC
     6.7020160000000004    0.0000000000000000    0.0000000000000000
     0.0000000000000000    6.7020160000000004    0.0000000000000000
     0.0000000000000000    0.0000000000000000    6.7020160000000004
PRESSURE
0.095215 0.112834 -0.18313 -0.043488 0.073536 -0.011606
PRIMCOORD
4 1
H       0.61864      3.26049      6.34683        -0.227799      0.297852     -0.299295
H       0.49645      1.54081      6.57756        -0.180783      0.018122     -0.242799
H       0.46011      2.58009      1.23725        -0.064014      0.101648     -0.591634
N       0.63487      2.46423      0.24123         0.472779     -0.417456      1.133981
