  # total energy =   -19.45867188 
CRSYTAL
PRIMVEC
     6.7020160000000004    0.0000000000000000    0.0000000000000000
     0.0000000000000000    6.7020160000000004    0.0000000000000000
     0.0000000000000000    0.0000000000000000    6.7020160000000004
PRESSURE
0.061081 0.485266 -0.402921 -0.254899 0.197243 0.105308
PRIMCOORD
4 1
H       0.23822      3.27327      6.22078        -0.161029      0.423982     -0.141498
H       0.50887      1.71493      6.45584        -0.314548     -0.808875      0.303326
H       0.17392      2.76228      1.09077         0.142615     -0.592258     -0.773092
N       0.63293      2.61545      0.17519         0.331532      0.977993      0.610194
