  # total energy =   -19.14313951 
CRSYTAL
PRIMVEC
     6.7020160000000004    0.0000000000000000    0.0000000000000000
     0.0000000000000000    6.7020160000000004    0.0000000000000000
     0.0000000000000000    0.0000000000000000    6.7020160000000004
PRESSURE
0.418723 -0.369826 0.603597 -0.558601 0.080129 0.528002
PRIMCOORD
4 1
H       0.93774      2.87057      0.20176         0.857613     -0.117847     -1.390737
H       6.57750      1.77418      0.13908        -0.765865     -0.671154     -0.502001
H       0.55764      2.32662      1.40888         0.140102     -1.445352      0.600582
N       0.81636      1.88427      0.49342        -0.232676      2.234507      1.293806
