  # total energy =   -19.24426582 
CRSYTAL
PRIMVEC
     6.7020160000000004    0.0000000000000000    0.0000000000000000
     0.0000000000000000    6.7020160000000004    0.0000000000000000
     0.0000000000000000    0.0000000000000000    6.7020160000000004
PRESSURE
0.925672 -0.352191 0.535087 0.321099 0.192924 0.136193
PRIMCOORD
4 1
H       6.62666      3.98068      5.63765        -0.827046     -0.878077     -0.496027
H       1.20417      3.88138      6.25308         1.590908     -0.173786      0.657045
H       6.61646      3.98587      0.43197        -0.039305     -0.132100      0.997674
N       0.32662      3.40758      6.40500        -0.724373      1.183267     -1.158517
