  # total energy =   -19.22551717 
CRSYTAL
PRIMVEC
     6.7020160000000004    0.0000000000000000    0.0000000000000000
     0.0000000000000000    6.7020160000000004    0.0000000000000000
     0.0000000000000000    0.0000000000000000    6.7020160000000004
PRESSURE
-0.968976 -0.302887 -0.881819 0.560463 -0.212006 0.296673
PRIMCOORD
4 1
H       1.75655      1.45230      0.24171        -1.013500      0.022978      0.003573
H       6.66925      1.62171      0.43827         0.897984     -0.425635      0.168785
H       1.03673      0.85160      1.69208        -0.722758      1.033431     -1.807093
N       0.90234      1.42519      0.80790         0.838123     -0.630139      1.634603
