  # total energy =   -19.17396172 
CRSYTAL
PRIMVEC
     6.7020160000000004    0.0000000000000000    0.0000000000000000
     0.0000000000000000    6.7020160000000004    0.0000000000000000
     0.0000000000000000    0.0000000000000000    6.7020160000000004
PRESSURE
-0.83445 0.014248 -0.969771 -0.163202 -0.640583 -0.267684
PRIMCOORD
4 1
H       1.58531      2.24326      0.25210        -0.895103     -0.037448     -0.626766
H       6.60176      1.55644      0.20734         0.714956      0.495751      0.427080
H       1.00594      1.62725      1.67103        -1.192166     -0.104177     -1.794945
N       0.82058      1.68696      0.62940         1.371362     -0.353679      1.993464
