  # total energy =   -19.29418154 
CRSYTAL
PRIMVEC
     6.7020160000000004    0.0000000000000000    0.0000000000000000
     0.0000000000000000    6.7020160000000004    0.0000000000000000
     0.0000000000000000    0.0000000000000000    6.7020160000000004
PRESSURE
1.16506 0.337339 1.24811 0.21395 -0.747601 0.072858
PRIMCOORD
4 1
H       6.43769      3.65977      5.48925         0.065874      0.349947     -0.517325
H       1.20128      3.97484      6.32291         1.604961      0.806543     -0.620472
H       6.53538      3.87731      0.40602        -1.715393      0.861581      2.444561
N       0.29582      3.61491      6.31522         0.045760     -2.019392     -1.307661
