  # total energy =   -19.49132111 
CRSYTAL
PRIMVEC
     6.7020160000000004    0.0000000000000000    0.0000000000000000
     0.0000000000000000    6.7020160000000004    0.0000000000000000
     0.0000000000000000    0.0000000000000000    6.7020160000000004
PRESSURE
-0.032689 -0.572859 0.272145 -0.111985 -0.304195 0.045804
PRIMCOORD
4 1
H       0.11575      3.29056      6.21038         0.435041     -0.336047      0.083879
H       0.46555      1.70074      6.48951         0.172488      0.885095      0.329726
H       0.07808      2.73538      0.98747        -0.272167     -0.123843      0.834314
N       0.63768      2.66797      0.15396        -0.335347     -0.425092     -1.249361
