  # total energy =   -19.24936025 
CRSYTAL
PRIMVEC
     6.7020160000000004    0.0000000000000000    0.0000000000000000
     0.0000000000000000    6.7020160000000004    0.0000000000000000
     0.0000000000000000    0.0000000000000000    6.7020160000000004
PRESSURE
0.330522 0.160222 1.41304 -0.328815 0.19099 0.024466
PRIMCOORD
4 1
H       1.61280      2.03998      0.20594         0.040635      0.222181     -0.290409
H       6.65392      1.56501      0.26265        -0.662520      0.069670     -0.283375
H       0.96937      1.42795      1.61230         0.102832     -0.514173      2.599108
N       0.84383      1.61889      0.68398         0.519752      0.223357     -2.023907
