  # total energy =   -19.42840002 
CRSYTAL
PRIMVEC
     6.7020160000000004    0.0000000000000000    0.0000000000000000
     0.0000000000000000    6.7020160000000004    0.0000000000000000
     0.0000000000000000    0.0000000000000000    6.7020160000000004
PRESSURE
0.050583 0.446779 -0.750693 -0.31619 0.373915 -0.108057
PRIMCOORD
4 1
H       6.69885      3.29071      5.96329        -0.446925      0.507563      0.119816
H       0.77714      2.00010      6.39611         0.057796     -0.722617      0.626350
H       0.02931      2.97304      0.93302         0.417293     -0.492645     -1.208454
N       0.54703      2.92264      0.02672        -0.027686      0.709124      0.462951
