  # total energy =   -19.39192132 
CRSYTAL
PRIMVEC
     6.7020160000000004    0.0000000000000000    0.0000000000000000
     0.0000000000000000    6.7020160000000004    0.0000000000000000
     0.0000000000000000    0.0000000000000000    6.7020160000000004
PRESSURE
0.220296 0.321332 0.524801 -0.441148 -0.351624 -0.029755
PRIMCOORD
4 1
H       1.47295      0.69052      0.21716         0.688957      0.429200     -0.629955
H       0.15545      1.43651      0.63844        -0.034970      0.521813     -0.006296
H       0.72790      0.23887      1.41211        -0.286425     -0.713398      1.244975
N       1.04570      1.11834      1.03725        -0.366790     -0.237294     -0.607720
