  # total energy =   -19.35127409 
CRSYTAL
PRIMVEC
     6.7020160000000004    0.0000000000000000    0.0000000000000000
     0.0000000000000000    6.7020160000000004    0.0000000000000000
     0.0000000000000000    0.0000000000000000    6.7020160000000004
PRESSURE
-0.676108 -0.102661 0.045139 -0.060006 -0.19477 -0.369784
PRIMCOORD
4 1
H       1.49921      2.37640      0.19786        -0.972553     -0.329071     -0.091760
H       6.59407      1.59732      0.19434         0.604020      0.508216      0.352362
H       0.91498      1.72562      1.60971        -0.516670     -0.035478      0.207716
N       0.81814      1.72461      0.60828         0.885336     -0.143722     -0.467937
