  # total energy =   -19.28482672 
CRSYTAL
PRIMVEC
     6.7020160000000004    0.0000000000000000    0.0000000000000000
     0.0000000000000000    6.7020160000000004    0.0000000000000000
     0.0000000000000000    0.0000000000000000    6.7020160000000004
PRESSURE
-0.503279 -0.22297 0.126115 0.063372 -0.098512 0.361991
PRIMCOORD
4 1
H       6.67210      3.56212      5.80514         0.299757     -0.233409      0.402812
H       1.27839      2.55384      6.43527        -1.034636      0.713106      0.290296
H       0.07939      3.28605      0.80464        -0.123549      0.054353      0.684516
N       0.43215      3.12360      6.59672         0.857544     -0.534068     -1.377754
