  # total energy =   -19.22325970 
CRSYTAL
PRIMVEC
     6.7020160000000004    0.0000000000000000    0.0000000000000000
     0.0000000000000000    6.7020160000000004    0.0000000000000000
     0.0000000000000000    0.0000000000000000    6.7020160000000004
PRESSURE
0.601029 1.42273 0.614216 -0.134536 -0.462589 -0.09719
PRIMCOORD
4 1
H       0.36358      3.91351      5.20361        -0.006546     -1.579512     -0.291896
H       0.04780      5.43161      5.34217        -0.573771      1.823402     -0.282764
H       6.11017      4.41438      6.53879        -1.649797     -0.498242      1.177720
N       0.05177      4.59338      5.84245         2.229377      0.254819     -0.602491
