  # total energy =   -19.33032942 
CRSYTAL
PRIMVEC
     6.7020160000000004    0.0000000000000000    0.0000000000000000
     0.0000000000000000    6.7020160000000004    0.0000000000000000
     0.0000000000000000    0.0000000000000000    6.7020160000000004
PRESSURE
-0.146725 -0.623799 0.257648 0.205916 -0.305906 0.437215
PRIMCOORD
4 1
H       6.68813      3.45833      5.92488         0.169376     -0.619724      0.343232
H       1.02852      2.11797      6.50711        -0.908586      1.054317     -0.205318
H       0.13429      3.05598      0.89025        -0.650801      0.107530      0.793532
N       0.49566      2.99365      6.67500         1.390914     -0.542205     -0.933135
