  # total energy =   -19.36228371 
CRSYTAL
PRIMVEC
     6.7020160000000004    0.0000000000000000    0.0000000000000000
     0.0000000000000000    6.7020160000000004    0.0000000000000000
     0.0000000000000000    0.0000000000000000    6.7020160000000004
PRESSURE
-0.54389 -0.716114 -1.09984 0.249055 0.759108 -0.247405
PRIMCOORD
4 1
H       0.15541      3.75354      5.16639        -0.370109      0.490267      0.730864
H       0.15168      5.41211      5.43723        -0.567163     -0.955746      0.783628
H       6.00154      4.32151      6.59253         1.297295      0.555986     -1.696874
N       0.10352      4.47929      5.90526        -0.359564     -0.089704      0.183052
