  # total energy =   -19.31749474 
CRSYTAL
PRIMVEC
     6.7020160000000004    0.0000000000000000    0.0000000000000000
     0.0000000000000000    6.7020160000000004    0.0000000000000000
     0.0000000000000000    0.0000000000000000    6.7020160000000004
PRESSURE
0.268917 0.1374 0.258655 0.017722 -0.16017 0.11604
PRIMCOORD
4 1
H       6.57989      3.46201      5.34820        -0.167649      0.006009     -0.029543
H       1.00176      4.53932      6.06833         0.209599      0.316219     -0.000051
H       6.38218      3.95095      0.29364        -0.496876      0.078559      0.569435
N       0.21418      3.93611      6.16445         0.455360     -0.400263     -0.538755
