  # total energy =   -19.18833316 
CRSYTAL
PRIMVEC
     6.7020160000000004    0.0000000000000000    0.0000000000000000
     0.0000000000000000    6.7020160000000004    0.0000000000000000
     0.0000000000000000    0.0000000000000000    6.7020160000000004
PRESSURE
-0.597802 0.063536 -0.780429 -0.17936 -0.595405 -0.172399
PRIMCOORD
4 1
H       1.58979      2.22083      0.25674        -0.689829      0.106364     -0.745342
H       6.61081      1.55475      0.21383         0.401053      0.423357      0.274672
H       1.01099      1.61107      1.66680        -1.173938     -0.111968     -1.570468
N       0.82168      1.68094      0.63363         1.461726     -0.417488      2.039800
