  # total energy =   -19.44937697 
CRSYTAL
PRIMVEC
     6.7020160000000004    0.0000000000000000    0.0000000000000000
     0.0000000000000000    6.7020160000000004    0.0000000000000000
     0.0000000000000000    0.0000000000000000    6.7020160000000004
PRESSURE
-0.8604 -0.113066 -0.834053 -0.322836 0.154817 0.020071
PRIMCOORD
4 1
H       6.46060      3.78457      5.51141         0.487344      0.129450      0.387092
H       1.26478      3.95063      6.31819        -0.993791     -0.189243     -0.227497
H       6.51986      3.95014      0.49398         0.787098     -0.590477     -1.464125
N       0.31004      3.53222      6.34497        -0.279913      0.649896      1.305238
