  # total energy =   -19.33521113 
CRSYTAL
PRIMVEC
     6.7020160000000004    0.0000000000000000    0.0000000000000000
     0.0000000000000000    6.7020160000000004    0.0000000000000000
     0.0000000000000000    0.0000000000000000    6.7020160000000004
PRESSURE
0.115488 -0.653829 -0.05952 0.018477 -0.057142 -0.071694
PRIMCOORD
4 1
H       0.57524      3.28045      6.31003        -0.220038     -0.393852      0.339591
H       0.50364      1.54055      6.54894        -0.078999      0.972473      0.282012
H       0.43646      2.60150      1.20827        -0.284442      0.168713      0.240451
N       0.63294      2.48394      0.23596         0.583316     -0.747225     -0.862096
