  # total energy =   -19.36206021 
CRSYTAL
PRIMVEC
     6.7020160000000004    0.0000000000000000    0.0000000000000000
     0.0000000000000000    6.7020160000000004    0.0000000000000000
     0.0000000000000000    0.0000000000000000    6.7020160000000004
PRESSURE
-0.01415 -0.569297 0.67319 -0.086192 -0.498816 -0.241457
PRIMCOORD
4 1
H       6.63670      3.25011      6.07459         0.498099      0.207729     -0.108887
H       0.53214      1.83232      6.49576         0.672608      1.092583     -0.005783
H       6.65772      2.78096      0.82890        -0.533889      0.369683      1.566212
N       0.59909      2.86057      0.06718        -0.636672     -1.670594     -1.451294
