  # total energy =   -19.24269404 
CRSYTAL
PRIMVEC
     6.7020160000000004    0.0000000000000000    0.0000000000000000
     0.0000000000000000    6.7020160000000004    0.0000000000000000
     0.0000000000000000    0.0000000000000000    6.7020160000000004
PRESSURE
0.519251 0.516581 -0.188108 -0.309032 -0.18439 0.120411
PRIMCOORD
4 1
H       0.31683      3.85947      5.15160        -0.675483     -0.198029      1.102850
H       0.10405      5.41234      5.35310        -0.613663      0.917411      0.408570
H       6.10218      4.38741      6.55317        -1.659026     -0.361613      0.936707
N       0.06375      4.55639      5.86776         2.946787     -0.357773     -2.447833
