  # total energy =   -19.38967577 
CRSYTAL
PRIMVEC
     6.7020160000000004    0.0000000000000000    0.0000000000000000
     0.0000000000000000    6.7020160000000004    0.0000000000000000
     0.0000000000000000    0.0000000000000000    6.7020160000000004
PRESSURE
-0.602206 -0.002963 -1.11658 -0.313136 -0.152313 0.140845
PRIMCOORD
4 1
H       6.59958      3.70957      5.69609         0.503587      0.207507      0.420064
H       1.39981      3.25360      6.46952        -0.836321      0.242086     -0.541967
H       0.11181      3.67953      0.73315         0.103452     -0.442463     -1.862349
N       0.36445      3.26060      6.48750         0.229047     -0.007410      1.983715
