  # total energy =   -19.19397712 
CRSYTAL
PRIMVEC
     6.7020160000000004    0.0000000000000000    0.0000000000000000
     0.0000000000000000    6.7020160000000004    0.0000000000000000
     0.0000000000000000    0.0000000000000000    6.7020160000000004
PRESSURE
-0.315112 -0.116978 -1.43185 0.503588 0.06856 -0.058455
PRIMCOORD
4 1
H       1.62414      1.88294      0.12770        -0.017016     -0.264292      0.818188
H       6.64494      1.58720      0.29633         0.625337     -0.058840      0.429285
H       0.91647      1.21677      1.72377         0.386768      0.765101     -2.012403
N       0.87159      1.55538      0.72600        -0.994230     -0.442672      0.764777
