  # total energy =   -19.34354821 
CRSYTAL
PRIMVEC
     6.7020160000000004    0.0000000000000000    0.0000000000000000
     0.0000000000000000    6.7020160000000004    0.0000000000000000
     0.0000000000000000    0.0000000000000000    6.7020160000000004
PRESSURE
0.047552 -0.572029 0.755002 0.027413 -0.373302 0.346663
PRIMCOORD
4 1
H       6.69737      3.41978      5.93413        -0.071269     -0.337540      0.170201
H       0.98271      2.07930      6.47410        -0.844762      1.062589      0.149199
H       0.12614      3.04022      0.87646        -1.050447      0.028729      1.800115
N       0.50492      2.97816      6.68942         1.967073     -0.753857     -2.120528
