  # total energy =   -19.43471520 
CRSYTAL
PRIMVEC
     6.7020160000000004    0.0000000000000000    0.0000000000000000
     0.0000000000000000    6.7020160000000004    0.0000000000000000
     0.0000000000000000    0.0000000000000000    6.7020160000000004
PRESSURE
-0.291537 -0.381521 0.252985 0.229622 -0.072822 0.161314
PRIMCOORD
4 1
H       1.08867      2.74971      0.12700         0.278712     -0.776031      0.275921
H       6.55125      1.78642      0.16548         0.594369     -0.498086      0.073884
H       0.61710      2.09301      1.49526         0.209315     -0.078142      0.650428
N       0.82803      1.81806      0.53878        -1.082128      1.351946     -1.000374
