  # total energy =   -19.24268548 
CRSYTAL
PRIMVEC
     6.7020160000000004    0.0000000000000000    0.0000000000000000
     0.0000000000000000    6.7020160000000004    0.0000000000000000
     0.0000000000000000    0.0000000000000000    6.7020160000000004
PRESSURE
-0.014591 -1.40965 0.163632 -0.149703 -0.120808 -0.384576
PRIMCOORD
4 1
H       0.82217      3.18790      6.46329        -0.371078     -1.136808      0.232252
H       0.35133      1.42251      6.58712         0.400456      1.810798      0.651216
H       0.58695      2.47601      1.28759        -0.266052     -0.139960      0.753455
N       0.66414      2.33014      0.31092         0.237228     -0.533511     -1.635767
