  # total energy =   -19.27616045 
CRSYTAL
PRIMVEC
     6.7020160000000004    0.0000000000000000    0.0000000000000000
     0.0000000000000000    6.7020160000000004    0.0000000000000000
     0.0000000000000000    0.0000000000000000    6.7020160000000004
PRESSURE
-0.565796 -0.04124 -0.777834 0.261044 0.036889 -0.114643
PRIMCOORD
4 1
H       1.62776      1.96836      0.15054        -0.462114     -0.272813      0.718590
H       6.63283      1.57541      0.26920         0.761407      0.037581      0.448396
H       0.93888      1.31427      1.68812         0.145604      0.363892     -0.869567
N       0.85838      1.58776      0.70520        -0.443356     -0.128302     -0.297266
