  # total energy =   -19.15610926 
CRSYTAL
PRIMVEC
     6.7020160000000004    0.0000000000000000    0.0000000000000000
     0.0000000000000000    6.7020160000000004    0.0000000000000000
     0.0000000000000000    0.0000000000000000    6.7020160000000004
PRESSURE
-0.190382 -0.548912 -0.04234 -0.81957 -0.022965 0.386792
PRIMCOORD
4 1
H       0.91918      2.90049      0.18249         0.658372     -0.248971     -1.327099
H       6.55651      1.74256      0.10954         0.366462     -0.269479      0.038889
H       0.53979      2.36419      1.42637         0.303240     -1.810997     -0.492334
N       0.81218      1.91191      0.47965        -1.328755      2.330208      1.780541
