  # total energy =   -19.37723418 
CRSYTAL
PRIMVEC
     6.7020160000000004    0.0000000000000000    0.0000000000000000
     0.0000000000000000    6.7020160000000004    0.0000000000000000
     0.0000000000000000    0.0000000000000000    6.7020160000000004
PRESSURE
-0.719789 -0.692213 -1.2348 0.144215 0.765579 -0.24326
PRIMCOORD
4 1
H       6.56229      3.66693      5.20425        -0.090092      0.239807      0.796192
H       0.46811      5.11942      5.71035        -0.636789     -1.240629      0.815922
H       6.09340      4.22465      0.08681         1.561534      0.056536     -1.853242
N       0.19382      4.15388      6.05952        -0.834119      0.943916      0.241866
