  # total energy =   -19.42150250 
CRSYTAL
PRIMVEC
     6.7020160000000004    0.0000000000000000    0.0000000000000000
     0.0000000000000000    6.7020160000000004    0.0000000000000000
     0.0000000000000000    0.0000000000000000    6.7020160000000004
PRESSURE
0.708291 0.439732 0.927484 -0.179257 -0.594725 0.012618
PRIMCOORD
4 1
H       6.69510      3.71217      5.23352         0.276730     -0.015965     -0.850522
H       0.11439      5.34551      5.56833         0.084867      0.894178     -0.876454
H       6.02293      4.33643      6.47004        -1.652459     -0.042258      1.528464
N       0.13367      4.42229      5.93358         1.290902     -0.836001      0.199359
