  # total energy =   -19.26951445 
CRSYTAL
PRIMVEC
     6.7020160000000004    0.0000000000000000    0.0000000000000000
     0.0000000000000000    6.7020160000000004    0.0000000000000000
     0.0000000000000000    0.0000000000000000    6.7020160000000004
PRESSURE
1.11002 -0.046752 0.860646 0.525016 -0.050808 0.069155
PRIMCOORD
4 1
H       6.60630      3.96203      5.62026        -0.727287     -0.768453     -0.488242
H       1.19758      3.89285      6.25632         1.777151      0.039730      0.531891
H       6.61176      3.96976      0.41273        -0.567633      0.549629      1.840134
N       0.32420      3.42632      6.39833        -0.482356      0.178351     -1.883632
