  # total energy =   -19.15477614 
CRSYTAL
PRIMVEC
     6.7020160000000004    0.0000000000000000    0.0000000000000000
     0.0000000000000000    6.7020160000000004    0.0000000000000000
     0.0000000000000000    0.0000000000000000    6.7020160000000004
PRESSURE
-0.906657 0.338102 0.135424 0.573486 0.361693 -0.240019
PRIMCOORD
4 1
H       6.67775      3.27726      6.19138         0.654292     -0.159281     -0.317482
H       0.41830      1.79084      6.59767         0.662825     -0.849984     -1.255048
H       6.60415      2.66236      0.90181         1.528771      1.006956     -0.263532
N       0.63825      2.76023      0.10462        -2.846518      0.001835      1.836073
