  # total energy =   -19.21080176 
CRSYTAL
PRIMVEC
     6.7020160000000004    0.0000000000000000    0.0000000000000000
     0.0000000000000000    6.7020160000000004    0.0000000000000000
     0.0000000000000000    0.0000000000000000    6.7020160000000004
PRESSURE
0.604529 -0.274631 1.25754 -0.050221 0.007426 0.436952
PRIMCOORD
4 1
H       0.98445      2.82948      0.18735         0.815942     -0.351218     -0.947507
H       6.58267      1.79444      0.16153        -1.046114     -0.795299     -0.692197
H       0.58311      2.24144      1.40684        -0.097938     -0.548155      2.032603
N       0.82101      1.85468      0.51270         0.327265      1.694850     -0.392738
