  # total energy =   -19.34979682 
CRSYTAL
PRIMVEC
     6.7020160000000004    0.0000000000000000    0.0000000000000000
     0.0000000000000000    6.7020160000000004    0.0000000000000000
     0.0000000000000000    0.0000000000000000    6.7020160000000004
PRESSURE
0.171931 -0.751885 -0.136022 0.185189 -0.252768 0.028245
PRIMCOORD
4 1
H       0.45308      3.30239      6.24337        -0.041333     -0.902369      1.046904
H       0.51622      1.59913      6.49634        -0.180591      0.764552      0.608779
H       0.35573      2.66605      1.15694        -0.616209      0.062959      0.779097
N       0.63082      2.53091      0.21773         0.837216      0.075337     -2.434061
