  # total energy =   -19.31120359 
CRSYTAL
PRIMVEC
     6.7020160000000004    0.0000000000000000    0.0000000000000000
     0.0000000000000000    6.7020160000000004    0.0000000000000000
     0.0000000000000000    0.0000000000000000    6.7020160000000004
PRESSURE
0.2212 0.582799 0.00014 -0.080025 0.049767 0.27307
PRIMCOORD
4 1
H       0.89134      3.06519      6.51387        -0.020985      0.526716     -0.519143
H       0.28041      1.47700      6.61324        -0.716169     -0.913633     -0.425963
H       0.62106      2.40031      1.34817        -0.228738     -0.266246     -0.438661
N       0.68488      2.25629      0.34573         0.966257      0.652445      1.383192
