  # total energy =   -19.28421111 
CRSYTAL
PRIMVEC
     6.7020160000000004    0.0000000000000000    0.0000000000000000
     0.0000000000000000    6.7020160000000004    0.0000000000000000
     0.0000000000000000    0.0000000000000000    6.7020160000000004
PRESSURE
-0.136891 -0.825844 -0.271381 -0.141812 -0.093426 -0.413652
PRIMCOORD
4 1
H       1.47737      0.80623      0.14604         0.394617      0.636972      0.452843
H       0.08829      1.35810      0.51228         0.273426      0.727243      0.379027
H       0.73766      0.28320      1.41167         0.668857      1.433585      0.121510
N       1.01528      1.23749      0.98508        -1.337265     -2.797279     -0.953436
