  # total energy =   -19.25910001 
CRSYTAL
PRIMVEC
     6.7020160000000004    0.0000000000000000    0.0000000000000000
     0.0000000000000000    6.7020160000000004    0.0000000000000000
     0.0000000000000000    0.0000000000000000    6.7020160000000004
PRESSURE
0.345321 0.946075 0.707712 0.164409 -0.530513 0.388089
PRIMCOORD
4 1
H       6.51101      3.80561      5.20032         0.195222     -1.271384     -0.703331
H       0.13680      5.16673      5.61141         0.987127      1.370065     -0.159620
H       6.01935      4.34791      6.50327        -0.896556     -0.361748      1.452379
N       0.19472      4.24764      6.02588        -0.285962      0.261515     -0.590754
