  # total energy =   -19.31990817 
CRSYTAL
PRIMVEC
     6.7020160000000004    0.0000000000000000    0.0000000000000000
     0.0000000000000000    6.7020160000000004    0.0000000000000000
     0.0000000000000000    0.0000000000000000    6.7020160000000004
PRESSURE
-0.11734 -0.605871 0.208769 0.094057 -0.197734 -0.374149
PRIMCOORD
4 1
H       0.92459      3.01870      6.49114        -0.365863     -0.504992      0.733897
H       0.15779      1.46242      6.60949         0.503048      1.037380      0.728637
H       0.60485      2.30625      1.34886        -0.360865      0.379327      1.232708
N       0.70903      2.20675      0.37972         0.222482     -0.912644     -2.695995
