  # total energy =   -19.31449859 
CRSYTAL
PRIMVEC
     6.7020160000000004    0.0000000000000000    0.0000000000000000
     0.0000000000000000    6.7020160000000004    0.0000000000000000
     0.0000000000000000    0.0000000000000000    6.7020160000000004
PRESSURE
-0.311354 -1.35877 -0.355819 -0.045679 0.314431 0.428398
PRIMCOORD
4 1
H       0.43447      3.84927      5.28201        -0.838189      1.520178      0.360907
H       6.55713      5.58566      5.32632         0.224152     -1.393682      0.060843
H       6.03940      4.43874      6.50328         0.391087      0.063917     -0.676204
N       0.04055      4.67646      5.79218         0.223036     -0.190049      0.254623
