  # total energy =   -19.46469788 
CRSYTAL
PRIMVEC
     6.7020160000000004    0.0000000000000000    0.0000000000000000
     0.0000000000000000    6.7020160000000004    0.0000000000000000
     0.0000000000000000    0.0000000000000000    6.7020160000000004
PRESSURE
-0.095956 0.118549 -0.939065 0.138358 0.184521 0.098117
PRIMCOORD
4 1
H       1.22960      2.59816      0.09506         0.147342      0.166242      0.570463
H       6.57658      1.73299      0.18165         0.187230     -0.159880      0.090214
H       0.68465      1.92247      1.60110         0.469254      0.267203     -1.404578
N       0.82774      1.78495      0.56413        -0.804049     -0.272838      0.744497
