  # total energy =   -19.23408602 
CRSYTAL
PRIMVEC
     6.7020160000000004    0.0000000000000000    0.0000000000000000
     0.0000000000000000    6.7020160000000004    0.0000000000000000
     0.0000000000000000    0.0000000000000000    6.7020160000000004
PRESSURE
0.257172 0.194438 0.184494 0.160903 -0.127916 -0.206476
PRIMCOORD
4 1
H       6.67614      3.53902      5.90691        -0.126700     -0.025422     -0.730954
H       1.15519      2.35574      6.56367         0.396870     -0.423516     -0.959558
H       0.13826      3.14611      0.87334        -0.320029      0.272206     -0.222149
N       0.46088      3.06040      6.62257         0.049337      0.176074      1.913845
