  # total energy =   -19.48675720 
CRSYTAL
PRIMVEC
     6.7020160000000004    0.0000000000000000    0.0000000000000000
     0.0000000000000000    6.7020160000000004    0.0000000000000000
     0.0000000000000000    0.0000000000000000    6.7020160000000004
PRESSURE
0.072646 0.162848 -0.192979 -0.344622 0.093327 0.057092
PRIMCOORD
4 1
H       0.20902      3.27393      6.22087        -0.116334      0.373207     -0.220181
H       0.50020      1.70862      6.45563        -0.196441     -0.154717      0.503680
H       0.15248      2.76265      1.06547         0.017985     -0.524068     -0.315214
N       0.63382      2.62802      0.17054         0.294359      0.306942      0.030926
