  # total energy =   -19.38473845 
CRSYTAL
PRIMVEC
     6.7020160000000004    0.0000000000000000    0.0000000000000000
     0.0000000000000000    6.7020160000000004    0.0000000000000000
     0.0000000000000000    0.0000000000000000    6.7020160000000004
PRESSURE
0.7258 0.986647 0.72462 -0.674435 -0.200201 -0.163193
PRIMCOORD
4 1
H       1.52156      0.95135      0.16011         0.944454     -0.117860     -0.528173
H       0.09760      1.38707      0.48959        -0.949192      0.683983     -0.227674
H       0.81506      0.45902      1.44214        -0.131947     -2.113568      1.717249
N       0.98769      1.27912      0.94817         0.136156      1.546409     -0.961067
