  # total energy =   -19.51757475 
CRSYTAL
PRIMVEC
     6.7020160000000004    0.0000000000000000    0.0000000000000000
     0.0000000000000000    6.7020160000000004    0.0000000000000000
     0.0000000000000000    0.0000000000000000    6.7020160000000004
PRESSURE
0.199481 0.378896 0.303745 -0.218199 -0.149437 0.03513
PRIMCOORD
4 1
H       1.52795      0.71544      0.22521         0.246022     -0.009604     -0.326246
H       0.21446      1.52438      0.71026        -0.188567      0.199735     -0.082451
H       0.72543      0.23521      1.51447        -0.294640     -0.743421      0.580446
N       1.05149      1.06033      1.05088         0.237342      0.553430     -0.171301
