  # total energy =   -19.34650565 
CRSYTAL
PRIMVEC
     6.7020160000000004    0.0000000000000000    0.0000000000000000
     0.0000000000000000    6.7020160000000004    0.0000000000000000
     0.0000000000000000    0.0000000000000000    6.7020160000000004
PRESSURE
-0.305073 -0.186918 -0.613072 0.353804 0.466086 -0.114053
PRIMCOORD
4 1
H       0.41118      3.89272      5.24656        -0.256254     -0.377820     -0.060301
H       6.65937      5.52971      5.32337        -0.255868     -0.645086      0.372211
H       6.05145      4.42258      6.56216         0.820401      0.182403     -1.361010
N       0.04611      4.63446      5.81405        -0.308408      0.840997      1.049511
