  # total energy =   -19.24324548 
CRSYTAL
PRIMVEC
     6.7020160000000004    0.0000000000000000    0.0000000000000000
     0.0000000000000000    6.7020160000000004    0.0000000000000000
     0.0000000000000000    0.0000000000000000    6.7020160000000004
PRESSURE
0.198237 0.082665 0.869454 0.161712 -0.321223 -0.101816
PRIMCOORD
4 1
H       6.67517      3.54457      5.89146        -0.093980      0.024290     -0.711869
H       1.18507      2.39658      6.54340         0.083380     -0.073189     -0.780133
H       0.13610      3.17187      0.83685        -0.718498      0.343303      1.173018
N       0.45364      3.07465      6.61744         0.727758     -0.294192      0.320422
