  # total energy =   -19.28916661 
CRSYTAL
PRIMVEC
     6.7020160000000004    0.0000000000000000    0.0000000000000000
     0.0000000000000000    6.7020160000000004    0.0000000000000000
     0.0000000000000000    0.0000000000000000    6.7020160000000004
PRESSURE
0.006291 -0.817804 -0.267112 -0.323331 -0.095404 -0.25082
PRIMCOORD
4 1
H       0.85241      3.14349      6.48965        -0.267906     -0.499114     -0.137458
H       0.32470      1.43083      6.59194         0.243748      1.209071      0.506337
H       0.60455      2.45526      1.32296        -0.216950     -0.351483     -0.332836
N       0.67142      2.30209      0.32320         0.241448     -0.358802     -0.035453
