  # total energy =   -19.27987362 
CRSYTAL
PRIMVEC
     6.7020160000000004    0.0000000000000000    0.0000000000000000
     0.0000000000000000    6.7020160000000004    0.0000000000000000
     0.0000000000000000    0.0000000000000000    6.7020160000000004
PRESSURE
-1.07898 -1.25365 -0.35924 -0.323947 0.091755 -0.031619
PRIMCOORD
4 1
H       6.57508      3.68028      5.19049         0.785873      1.336663      0.694412
H       0.07935      5.35508      5.59620         0.469509     -1.450932     -0.135444
H       5.91138      4.36300      6.48635         1.845130     -0.211547     -0.386748
N       0.16994      4.35904      5.96687        -3.101249      0.324759     -0.172101
