  # total energy =   -19.48333666 
CRSYTAL
PRIMVEC
     6.7020160000000004    0.0000000000000000    0.0000000000000000
     0.0000000000000000    6.7020160000000004    0.0000000000000000
     0.0000000000000000    0.0000000000000000    6.7020160000000004
PRESSURE
0.187273 0.02282 0.396769 0.381472 -0.209121 -0.059941
PRIMCOORD
4 1
H       6.52566      3.88191      5.55544         0.036425     -0.421612      0.148413
H       1.23212      3.92883      6.28223         0.192454     -0.115873      0.230257
H       6.57122      3.94867      0.42812        -0.454690      0.476674      1.182888
N       0.31644      3.48179      6.37305         0.226026      0.060529     -1.562113
