  # total energy =   -19.49932492 
CRSYTAL
PRIMVEC
     6.7020160000000004    0.0000000000000000    0.0000000000000000
     0.0000000000000000    6.7020160000000004    0.0000000000000000
     0.0000000000000000    0.0000000000000000    6.7020160000000004
PRESSURE
0.027445 -0.011931 0.242161 0.305045 -0.168048 -0.053158
PRIMCOORD
4 1
H       6.51834      3.87363      5.54983         0.111736     -0.380348      0.218396
H       1.23743      3.93180      6.28534        -0.016487     -0.155181      0.198939
H       6.56554      3.94930      0.43500        -0.292248      0.322666      0.859261
N       0.31583      3.48636      6.37049         0.196880      0.212707     -1.277284
