  # total energy =   -19.41000326 
CRSYTAL
PRIMVEC
     6.7020160000000004    0.0000000000000000    0.0000000000000000
     0.0000000000000000    6.7020160000000004    0.0000000000000000
     0.0000000000000000    0.0000000000000000    6.7020160000000004
PRESSURE
-0.36574 -0.001875 -0.970259 -0.324839 -0.214893 0.094996
PRIMCOORD
4 1
H       6.59766      3.72617      5.69887         0.473328      0.234135      0.307474
H       1.38906      3.29509      6.47656        -0.457628      0.172814     -0.653710
H       0.11758      3.70206      0.71821        -0.037070     -0.453931     -1.679474
N       0.36190      3.26593      6.48198         0.020848      0.047276      2.025202
