  # total energy =   -19.38919692 
CRSYTAL
PRIMVEC
     6.7020160000000004    0.0000000000000000    0.0000000000000000
     0.0000000000000000    6.7020160000000004    0.0000000000000000
     0.0000000000000000    0.0000000000000000    6.7020160000000004
PRESSURE
-0.700693 -0.610826 -0.355529 -0.426674 -0.188165 -0.113958
PRIMCOORD
4 1
H       0.91888      2.93766      0.06610         0.118763     -0.718873     -0.432037
H       6.55446      1.67102      0.06057         1.359062      0.415044      0.509526
H       0.52422      2.32751      1.42235         0.244815     -0.954661     -0.658352
N       0.79691      1.97742      0.45971        -1.723048      1.258857      0.580906
