  # total energy =   -19.28856063 
CRSYTAL
PRIMVEC
     6.7020160000000004    0.0000000000000000    0.0000000000000000
     0.0000000000000000    6.7020160000000004    0.0000000000000000
     0.0000000000000000    0.0000000000000000    6.7020160000000004
PRESSURE
-0.159874 -0.473102 0.768232 0.024815 -0.274908 -0.397851
PRIMCOORD
4 1
H       6.63682      3.24829      6.11047         0.366417      0.306735     -0.515622
H       0.49087      1.81614      6.53067         0.880338      0.919565     -0.385265
H       6.63499      2.74011      0.82461        -0.077229      0.633581      1.342965
N       0.60911      2.84489      0.07298        -1.169339     -1.859912     -0.441483
