  # total energy =   -19.38754062 
CRSYTAL
PRIMVEC
     6.7020160000000004    0.0000000000000000    0.0000000000000000
     0.0000000000000000    6.7020160000000004    0.0000000000000000
     0.0000000000000000    0.0000000000000000    6.7020160000000004
PRESSURE
0.159303 -0.365312 -0.35452 0.177703 -0.18646 0.094516
PRIMCOORD
4 1
H       0.40568      3.30001      6.22970         0.003995     -0.717913      0.974927
H       0.51930      1.63340      6.48366        -0.267980      0.128729      0.475248
H       0.31814      2.69200      1.14772        -0.491888     -0.108740      0.236021
N       0.63072      2.54848      0.20876         0.755767      0.698559     -1.685673
