  # total energy =   -19.30434063 
CRSYTAL
PRIMVEC
     6.7020160000000004    0.0000000000000000    0.0000000000000000
     0.0000000000000000    6.7020160000000004    0.0000000000000000
     0.0000000000000000    0.0000000000000000    6.7020160000000004
PRESSURE
0.737743 0.737241 0.492944 0.241423 -0.706321 0.277028
PRIMCOORD
4 1
H       6.51788      3.80022      5.18868         0.130428     -1.107264     -0.205676
H       0.20031      5.14632      5.61305         0.807130      1.011131      0.219237
H       6.06264      4.32108      6.54811        -1.712997     -0.111959      1.680073
N       0.19445      4.22270      6.03860         0.776024      0.209171     -1.694091
