  # total energy =   -19.14710029 
CRSYTAL
PRIMVEC
     6.7020160000000004    0.0000000000000000    0.0000000000000000
     0.0000000000000000    6.7020160000000004    0.0000000000000000
     0.0000000000000000    0.0000000000000000    6.7020160000000004
PRESSURE
-0.535224 -1.41534 -0.601597 -0.055675 -0.061899 -0.431685
PRIMCOORD
4 1
H       1.47437      0.75945      0.14185         0.105255      0.944230      0.880662
H       0.08044      1.36379      0.52398         0.830554      0.553763      0.612379
H       0.71669      0.22196      1.41423         0.882745      2.318897     -0.213370
N       1.02443      1.21966      0.99770        -1.818886     -3.816376     -1.280770
