  # total energy =   -19.28002343 
CRSYTAL
PRIMVEC
     6.7020160000000004    0.0000000000000000    0.0000000000000000
     0.0000000000000000    6.7020160000000004    0.0000000000000000
     0.0000000000000000    0.0000000000000000    6.7020160000000004
PRESSURE
-0.459165 -0.224296 0.352068 0.098287 -0.186167 0.348793
PRIMCOORD
4 1
H       6.67173      3.56113      5.81257         0.292956     -0.229018      0.318469
H       1.27295      2.53857      6.44484        -1.022375      0.721923      0.204116
H       0.08646      3.27542      0.80155        -0.303054      0.127894      1.065346
N       0.43369      3.11960      6.59887         1.031415     -0.620604     -1.588164
