  # total energy =   -19.35529235 
CRSYTAL
PRIMVEC
     6.7020160000000004    0.0000000000000000    0.0000000000000000
     0.0000000000000000    6.7020160000000004    0.0000000000000000
     0.0000000000000000    0.0000000000000000    6.7020160000000004
PRESSURE
0.705152 0.784567 0.646702 -0.611494 -0.221921 -0.230454
PRIMCOORD
4 1
H       1.49653      0.90384      0.16025         1.023519      0.002527     -0.533760
H       0.10337      1.36798      0.49822        -0.910373      0.865936     -0.191821
H       0.78951      0.41649      1.41684        -0.038048     -1.633102      1.551698
N       0.99675      1.26552      0.96070        -0.074869      0.764118     -0.826162
