  # total energy =   -19.33275622 
CRSYTAL
PRIMVEC
     6.7020160000000004    0.0000000000000000    0.0000000000000000
     0.0000000000000000    6.7020160000000004    0.0000000000000000
     0.0000000000000000    0.0000000000000000    6.7020160000000004
PRESSURE
-0.368996 -0.132633 -1.11484 -0.02394 -0.07552 -0.396783
PRIMCOORD
4 1
H       0.93718      2.92974      6.51545        -0.202255      0.387967      0.649813
H       0.02633      1.51083      6.65714         0.968383      0.998622      0.729736
H       0.55197      2.21339      1.43069         0.174597      0.630195     -1.327396
N       0.74319      2.13635      0.41111        -0.940654     -2.017122     -0.051317
