  # total energy =   -19.11918177 
CRSYTAL
PRIMVEC
     6.7020160000000004    0.0000000000000000    0.0000000000000000
     0.0000000000000000    6.7020160000000004    0.0000000000000000
     0.0000000000000000    0.0000000000000000    6.7020160000000004
PRESSURE
-0.604387 -1.5078 -0.648524 -0.047884 -0.059333 -0.427454
PRIMCOORD
4 1
H       1.47388      0.74931      0.14200         0.057266      1.000394      0.945129
H       0.07957      1.36607      0.52768         0.927842      0.512002      0.647276
H       0.71281      0.21015      1.41463         0.910707      2.442905     -0.251319
N       1.02649      1.21491      1.00066        -1.896190     -3.955130     -1.342340
