  # total energy =   -19.29142412 
CRSYTAL
PRIMVEC
     6.7020160000000004    0.0000000000000000    0.0000000000000000
     0.0000000000000000    6.7020160000000004    0.0000000000000000
     0.0000000000000000    0.0000000000000000    6.7020160000000004
PRESSURE
-0.321158 0.579769 0.412456 0.109974 -0.26571 0.404923
PRIMCOORD
4 1
H       6.50931      3.79134      5.19860         0.372245     -0.925107     -0.470289
H       0.11087      5.19823      5.60883         0.961489      0.755277     -0.092977
H       5.97714      4.36015      6.49688         0.409342     -0.505419      0.747099
N       0.19482      4.26339      6.01718        -1.742302      0.673889     -0.184924
