  # total energy =   -19.35019898 
CRSYTAL
PRIMVEC
     6.7020160000000004    0.0000000000000000    0.0000000000000000
     0.0000000000000000    6.7020160000000004    0.0000000000000000
     0.0000000000000000    0.0000000000000000    6.7020160000000004
PRESSURE
-0.243048 0.01622 -0.524649 0.356114 0.406567 -0.158261
PRIMCOORD
4 1
H       0.40720      3.89791      5.24413        -0.167443     -0.618650     -0.164204
H       6.66812      5.52060      5.32457        -0.304293     -0.423058      0.324608
H       6.05591      4.42195      6.56221         0.707251      0.146871     -1.251648
N       0.04652      4.63086      5.81621        -0.235784      0.895602      1.091672
