  # total energy =   -19.40780751 
CRSYTAL
PRIMVEC
     6.7020160000000004    0.0000000000000000    0.0000000000000000
     0.0000000000000000    6.7020160000000004    0.0000000000000000
     0.0000000000000000    0.0000000000000000    6.7020160000000004
PRESSURE
-0.704572 -0.706865 -0.963005 0.674363 0.13807 0.194071
PRIMCOORD
4 1
H       1.66015      1.10469      0.16168        -0.860851      0.040271      0.678916
H       0.02836      1.50108      0.46550         0.771777     -0.447799      0.324586
H       0.90635      0.50693      1.60091        -0.055728      1.576474     -1.670567
N       0.95634      1.32919      0.89993         0.145313     -1.168438      0.666360
