  # total energy =   -19.30511317 
CRSYTAL
PRIMVEC
     6.7020160000000004    0.0000000000000000    0.0000000000000000
     0.0000000000000000    6.7020160000000004    0.0000000000000000
     0.0000000000000000    0.0000000000000000    6.7020160000000004
PRESSURE
0.133712 0.226591 -0.321427 -0.283805 -0.011791 0.107687
PRIMCOORD
4 1
H       0.87681      3.09234      6.51110        -0.060777      0.390835     -0.574713
H       0.30221      1.46031      6.60552        -0.343810     -0.219472     -0.093817
H       0.61713      2.42749      1.34891        -0.200446     -0.417064     -0.912145
N       0.67895      2.27438      0.33541         0.604977      0.245880      1.580109
