  # total energy =   -19.41527766 
CRSYTAL
PRIMVEC
     6.7020160000000004    0.0000000000000000    0.0000000000000000
     0.0000000000000000    6.7020160000000004    0.0000000000000000
     0.0000000000000000    0.0000000000000000    6.7020160000000004
PRESSURE
-0.668321 -0.583104 -0.297934 -0.34569 -0.18839 -0.13916
PRIMCOORD
4 1
H       0.91991      2.93837      0.05370         0.083446     -0.728219     -0.335917
H       6.55917      1.66623      0.05837         1.309928      0.421265      0.483949
H       0.52412      2.31930      1.41876         0.212290     -0.807842     -0.520360
N       0.79515      1.98323      0.45839        -1.606012      1.115145      0.372619
