  # total energy =   -19.46662057 
CRSYTAL
PRIMVEC
     6.7020160000000004    0.0000000000000000    0.0000000000000000
     0.0000000000000000    6.7020160000000004    0.0000000000000000
     0.0000000000000000    0.0000000000000000    6.7020160000000004
PRESSURE
-0.865071 -0.143745 -0.7675 -0.243147 0.128949 0.003827
PRIMCOORD
4 1
H       6.47003      3.80519      5.51638         0.487919      0.011392      0.467835
H       1.26600      3.94854      6.31121        -1.042460     -0.263070     -0.120291
H       6.52556      3.95331      0.48802         0.724284     -0.543880     -1.251745
N       0.31139      3.52147      6.35042        -0.169396      0.795166      0.905021
