  # total energy =   -19.22419432 
CRSYTAL
PRIMVEC
     6.7020160000000004    0.0000000000000000    0.0000000000000000
     0.0000000000000000    6.7020160000000004    0.0000000000000000
     0.0000000000000000    0.0000000000000000    6.7020160000000004
PRESSURE
-0.839153 -0.189788 -1.25757 -0.064824 0.614357 -0.320095
PRIMCOORD
4 1
H       6.57008      3.45941      5.33144         0.007249      0.334517      0.716950
H       1.06801      4.49050      6.06461        -1.088024     -0.503342      0.371820
H       6.35055      3.92303      0.36646         1.165880      0.115409     -1.913832
N       0.22123      3.90959      6.17778        -0.083917      0.053492      0.826170
