  # total energy =   -19.32563763 
CRSYTAL
PRIMVEC
     6.7020160000000004    0.0000000000000000    0.0000000000000000
     0.0000000000000000    6.7020160000000004    0.0000000000000000
     0.0000000000000000    0.0000000000000000    6.7020160000000004
PRESSURE
-0.070707 -0.538824 0.748993 -0.036284 -0.406688 -0.320434
PRIMCOORD
4 1
H       6.63624      3.24889      6.09290         0.435629      0.257274     -0.323277
H       0.51058      1.82299      6.51343         0.785551      1.037809     -0.195507
H       6.64678      2.75995      0.82494        -0.350324      0.497915      1.511971
N       0.60417      2.85289      0.07017        -0.870611     -1.793441     -0.992560
