  # total energy =   -19.20707921 
CRSYTAL
PRIMVEC
     6.7020160000000004    0.0000000000000000    0.0000000000000000
     0.0000000000000000    6.7020160000000004    0.0000000000000000
     0.0000000000000000    0.0000000000000000    6.7020160000000004
PRESSURE
0.640105 0.207897 1.72433 -0.402039 0.194007 0.110416
PRIMCOORD
4 1
H       1.60605      2.06894      0.22704         0.254077      0.439467     -0.685231
H       6.65897      1.56164      0.25900        -1.159730      0.056788     -0.525268
H       0.98231      1.46895      1.60102        -0.008591     -0.572439      2.948420
N       0.83836      1.63117      0.67450         0.914460      0.075875     -1.736025
