  # total energy =   -19.27606544 
CRSYTAL
PRIMVEC
     6.7020160000000004    0.0000000000000000    0.0000000000000000
     0.0000000000000000    6.7020160000000004    0.0000000000000000
     0.0000000000000000    0.0000000000000000    6.7020160000000004
PRESSURE
1.18291 0.333497 1.32901 0.23486 -0.807897 0.060525
PRIMCOORD
4 1
H       6.43682      3.65133      5.48553         0.081400      0.340244     -0.493952
H       1.20047      3.98003      6.31995         1.583031      0.796666     -0.615186
H       6.53337      3.87252      0.40171        -1.844928      0.904355      2.666253
N       0.29444      3.62147      6.31283         0.181755     -2.042178     -1.558407
