  # total energy =   -19.25559380 
CRSYTAL
PRIMVEC
     6.7020160000000004    0.0000000000000000    0.0000000000000000
     0.0000000000000000    6.7020160000000004    0.0000000000000000
     0.0000000000000000    0.0000000000000000    6.7020160000000004
PRESSURE
0.052828 -1.18365 0.605636 0.151899 -0.091691 -0.239712
PRIMCOORD
4 1
H       0.75995      3.23474      6.42376        -0.313526     -1.196228      0.332192
H       0.40741      1.45490      6.59488         0.152364      1.301180      0.212672
H       0.54906      2.50894      1.24830        -0.300441      0.125011      1.488618
N       0.65201      2.37788      0.28643         0.461959     -0.230982     -2.033006
