  # total energy =   -19.20761650 
CRSYTAL
PRIMVEC
     6.7020160000000004    0.0000000000000000    0.0000000000000000
     0.0000000000000000    6.7020160000000004    0.0000000000000000
     0.0000000000000000    0.0000000000000000    6.7020160000000004
PRESSURE
-0.664896 -0.110797 -1.43343 0.478711 0.025378 -0.111628
PRIMCOORD
4 1
H       1.62900      1.93466      0.13415        -0.428133     -0.344600      0.926047
H       6.63102      1.58053      0.27654         0.986933     -0.010656      0.580927
H       0.92756      1.26783      1.71718         0.228617      0.693238     -1.885947
N       0.86440      1.57424      0.71378        -0.786029     -0.338581      0.378473
