  # total energy =   -19.26841057 
CRSYTAL
PRIMVEC
     6.7020160000000004    0.0000000000000000    0.0000000000000000
     0.0000000000000000    6.7020160000000004    0.0000000000000000
     0.0000000000000000    0.0000000000000000    6.7020160000000004
PRESSURE
0.422835 0.293277 0.92626 -0.459637 0.170022 -0.092324
PRIMCOORD
4 1
H       1.67663      1.64836      0.18902         0.371574     -0.099609     -0.088351
H       6.68719      1.61112      0.39104        -0.549280      0.021584     -0.282497
H       0.96135      1.05055      1.63549         0.379335     -1.053588      1.843898
N       0.88984      1.47922      0.77585        -0.202450      1.131700     -1.472284
