  # total energy =   -19.30828235 
CRSYTAL
PRIMVEC
     6.7020160000000004    0.0000000000000000    0.0000000000000000
     0.0000000000000000    6.7020160000000004    0.0000000000000000
     0.0000000000000000    0.0000000000000000    6.7020160000000004
PRESSURE
0.093925 -0.319664 0.377604 0.218581 -0.005682 -0.039628
PRIMCOORD
4 1
H       0.71607      3.24529      6.40405        -0.218856     -0.577763      0.017571
H       0.44513      1.49613      6.60364        -0.146567      0.126781     -0.346732
H       0.52081      2.53098      1.24563        -0.192634      0.130649      0.628803
N       0.64495      2.40736      0.26898         0.556716      0.319600     -0.300734
