  # total energy =   -19.22602701 
CRSYTAL
PRIMVEC
     6.7020160000000004    0.0000000000000000    0.0000000000000000
     0.0000000000000000    6.7020160000000004    0.0000000000000000
     0.0000000000000000    0.0000000000000000    6.7020160000000004
PRESSURE
0.605253 0.701348 0.021646 -0.336501 -0.30339 0.124284
PRIMCOORD
4 1
H       0.32421      3.86859      5.15753        -0.610797     -0.386361      0.940103
H       0.09758      5.41170      5.35152        -0.602550      1.162565      0.271220
H       6.10778      4.39228      6.54797        -1.904479     -0.448283      1.228455
N       0.06162      4.56151      5.86460         3.116446     -0.327393     -2.439487
