  # total energy =   -19.45569218 
CRSYTAL
PRIMVEC
     6.7020160000000004    0.0000000000000000    0.0000000000000000
     0.0000000000000000    6.7020160000000004    0.0000000000000000
     0.0000000000000000    0.0000000000000000    6.7020160000000004
PRESSURE
-0.515694 -0.63026 -0.85017 0.518017 0.135741 0.059954
PRIMCOORD
4 1
H       1.62034      1.05035      0.14505        -0.572746      0.049171      0.735484
H       0.04256      1.46318      0.46544         0.624830     -0.234647      0.381212
H       0.87040      0.46560      1.56907         0.148264      1.391595     -1.319300
N       0.96773      1.31322      0.91693        -0.199311     -1.205922      0.202225
