  # total energy =   -19.28484914 
CRSYTAL
PRIMVEC
     6.7020160000000004    0.0000000000000000    0.0000000000000000
     0.0000000000000000    6.7020160000000004    0.0000000000000000
     0.0000000000000000    0.0000000000000000    6.7020160000000004
PRESSURE
-0.555704 -0.205282 -0.304492 -0.012395 0.080338 0.365509
PRIMCOORD
4 1
H       6.67334      3.56361      5.79149         0.287330     -0.221342      0.533201
H       1.28708      2.58469      6.41730        -0.994330      0.655719      0.441504
H       0.06558      3.30669      0.81163         0.226574     -0.092985     -0.052103
N       0.42928      3.13129      6.59240         0.479581     -0.342164     -0.922775
