  # total energy =   -19.45882414 
CRSYTAL
PRIMVEC
     6.7020160000000004    0.0000000000000000    0.0000000000000000
     0.0000000000000000    6.7020160000000004    0.0000000000000000
     0.0000000000000000    0.0000000000000000    6.7020160000000004
PRESSURE
-0.184997 0.084095 -1.01354 0.144599 0.169858 0.087736
PRIMCOORD
4 1
H       1.22165      2.60751      0.09372         0.124040      0.089897      0.610828
H       6.57178      1.73696      0.17947         0.344445     -0.169244      0.153459
H       0.67876      1.93114      1.60147         0.489589      0.239756     -1.496012
N       0.82819      1.78661      0.56264        -0.958107     -0.159295      0.732177
