  # total energy =   -19.44187032 
CRSYTAL
PRIMVEC
     6.7020160000000004    0.0000000000000000    0.0000000000000000
     0.0000000000000000    6.7020160000000004    0.0000000000000000
     0.0000000000000000    0.0000000000000000    6.7020160000000004
PRESSURE
-0.462625 -0.071322 -1.10586 0.172854 0.109304 0.058777
PRIMCOORD
4 1
H       1.19024      2.64522      0.09226         0.052053     -0.234851      0.720884
H       6.55538      1.75184      0.17193         0.826515     -0.219589      0.331118
H       0.65808      1.96733      1.59356         0.528033      0.126799     -1.555077
N       0.82951      1.79328      0.55695        -1.406443      0.329486      0.503319
