  # total energy =   -19.40167073 
CRSYTAL
PRIMVEC
     6.7020160000000004    0.0000000000000000    0.0000000000000000
     0.0000000000000000    6.7020160000000004    0.0000000000000000
     0.0000000000000000    0.0000000000000000    6.7020160000000004
PRESSURE
-0.450761 -0.004752 -1.03731 -0.327087 -0.193907 0.111396
PRIMCOORD
4 1
H       6.59799      3.72065      5.69775         0.488270      0.225031      0.350121
H       1.39293      3.28152      6.47465        -0.592244      0.195082     -0.620527
H       0.11569      3.69503      0.72413         0.015793     -0.462384     -1.771499
N       0.36272      3.26420      6.48369         0.087713      0.042336      2.041403
