  # total energy =   -19.23567317 
CRSYTAL
PRIMVEC
     6.7020160000000004    0.0000000000000000    0.0000000000000000
     0.0000000000000000    6.7020160000000004    0.0000000000000000
     0.0000000000000000    0.0000000000000000    6.7020160000000004
PRESSURE
1.00404 0.239408 1.18928 0.174085 -0.443626 0.27488
PRIMCOORD
4 1
H       6.50428      3.51376      5.40724        -0.361072     -0.112835     -0.537427
H       1.14453      4.17915      6.15875         1.189520      0.735833      0.133957
H       6.43331      3.83706      0.34167        -1.290406      0.371259      2.273243
N       0.25558      3.78443      6.24678         0.461435     -0.995746     -1.870028
