  # total energy =   -19.33927506 
CRSYTAL
PRIMVEC
     6.7020160000000004    0.0000000000000000    0.0000000000000000
     0.0000000000000000    6.7020160000000004    0.0000000000000000
     0.0000000000000000    0.0000000000000000    6.7020160000000004
PRESSURE
-0.81701 -1.13011 -0.217311 -0.340305 0.014411 -0.063948
PRIMCOORD
4 1
H       6.59134      3.67802      5.19665         0.726051      1.320909      0.556692
H       0.08313      5.35777      5.59506         0.403824     -1.221613     -0.258208
H       5.92790      4.35912      6.48055         1.410183     -0.150120     -0.176270
N       0.16435      4.37017      5.96115        -2.541535      0.050162     -0.122671
