  # total energy =   -19.36870729 
CRSYTAL
PRIMVEC
     6.7020160000000004    0.0000000000000000    0.0000000000000000
     0.0000000000000000    6.7020160000000004    0.0000000000000000
     0.0000000000000000    0.0000000000000000    6.7020160000000004
PRESSURE
0.460904 0.24195 0.340896 -0.417678 -0.177984 -0.306294
PRIMCOORD
4 1
H       1.48653      0.86945      0.15609         0.848645      0.195508     -0.247821
H       0.10023      1.36086      0.50286        -0.564806      0.870646     -0.017214
H       0.77063      0.37209      1.41124         0.211438     -0.496950      0.990263
N       1.00326      1.25624      0.96925        -0.494465     -0.569205     -0.725037
