  # total energy =   -19.29914849 
CRSYTAL
PRIMVEC
     6.7020160000000004    0.0000000000000000    0.0000000000000000
     0.0000000000000000    6.7020160000000004    0.0000000000000000
     0.0000000000000000    0.0000000000000000    6.7020160000000004
PRESSURE
0.102145 0.616424 -0.032081 0.109421 0.100874 0.085479
PRIMCOORD
4 1
H       0.66933      3.24626      6.38384        -0.172404      0.371704     -0.497500
H       0.47796      1.53523      6.60370        -0.336760     -0.962768     -0.750581
H       0.49007      2.55474      1.25251        -0.026930      0.078625     -0.585631
N       0.63896      2.43631      0.25215         0.535647      0.513445      1.832065
