  # total energy =   -19.29243452 
CRSYTAL
PRIMVEC
     6.7020160000000004    0.0000000000000000    0.0000000000000000
     0.0000000000000000    6.7020160000000004    0.0000000000000000
     0.0000000000000000    0.0000000000000000    6.7020160000000004
PRESSURE
-0.462674 -0.708304 -0.666271 -0.374478 0.213621 -0.398433
PRIMCOORD
4 1
H       6.56647      3.48369      5.31267         0.281345      0.923550      0.302241
H       0.75407      4.93142      5.98371        -0.726137     -0.939755     -0.546222
H       6.26319      4.11827      0.21452         0.661536     -0.107243     -1.291035
N       0.19329      4.06999      6.08569        -0.216020      0.122878      1.536029
