  # total energy =   -19.36753918 
CRSYTAL
PRIMVEC
     6.7020160000000004    0.0000000000000000    0.0000000000000000
     0.0000000000000000    6.7020160000000004    0.0000000000000000
     0.0000000000000000    0.0000000000000000    6.7020160000000004
PRESSURE
0.550742 1.12262 0.883961 -0.649821 -0.462592 0.124392
PRIMCOORD
4 1
H       1.48584      0.69951      0.23217         0.848013      0.103792     -1.053971
H       0.18456      1.46525      0.66994        -0.450761      0.614875     -0.205960
H       0.73683      0.26320      1.43267        -0.888328     -2.321265      1.874072
N       1.04765      1.09351      1.04329         0.491660      1.601113     -0.612905
