  # total energy =   -19.25570344 
CRSYTAL
PRIMVEC
     6.7020160000000004    0.0000000000000000    0.0000000000000000
     0.0000000000000000    6.7020160000000004    0.0000000000000000
     0.0000000000000000    0.0000000000000000    6.7020160000000004
PRESSURE
0.688048 0.215501 0.897434 0.154219 -0.32961 0.21265
PRIMCOORD
4 1
H       6.53348      3.49674      5.38213        -0.379268     -0.132897     -0.271512
H       1.11925      4.26742      6.11718         0.653476      0.563953      0.301444
H       6.41738      3.85477      0.32938        -1.075825      0.296113      1.874508
N       0.24381      3.82417      6.22798         0.801010     -0.727021     -1.905828
