  # total energy =   -19.29893739 
CRSYTAL
PRIMVEC
     6.7020160000000004    0.0000000000000000    0.0000000000000000
     0.0000000000000000    6.7020160000000004    0.0000000000000000
     0.0000000000000000    0.0000000000000000    6.7020160000000004
PRESSURE
-0.065821 0.089036 0.636285 -0.139829 0.125564 -0.05172
PRIMCOORD
4 1
H       1.61975      2.01225      0.18330        -0.208666     -0.006537      0.144709
H       6.64535      1.56876      0.26480        -0.042210      0.073992      0.028657
H       0.95695      1.38430      1.63722         0.115041     -0.243848      1.371772
N       0.84949      1.60671      0.69269         0.136764      0.176925     -1.545497
