  # total energy =   -19.46937160 
CRSYTAL
PRIMVEC
     6.7020160000000004    0.0000000000000000    0.0000000000000000
     0.0000000000000000    6.7020160000000004    0.0000000000000000
     0.0000000000000000    0.0000000000000000    6.7020160000000004
PRESSURE
-0.142921 0.130373 -0.78776 -0.221937 0.087247 -0.005326
PRIMCOORD
4 1
H       6.66995      3.26754      5.97884         0.178098      0.262000      0.662009
H       0.68995      1.94256      6.40595         0.081712     -0.152533      0.673664
H       6.69960      2.91792      0.91550         0.374133     -0.307432     -0.840731
N       0.56587      2.90214      0.04218        -0.633540      0.198823     -0.494710
