  # total energy =   -19.49164651 
CRSYTAL
PRIMVEC
     6.7020160000000004    0.0000000000000000    0.0000000000000000
     0.0000000000000000    6.7020160000000004    0.0000000000000000
     0.0000000000000000    0.0000000000000000    6.7020160000000004
PRESSURE
0.075647 0.074272 -0.136717 -0.353691 0.05606 0.047866
PRIMCOORD
4 1
H       0.20183      3.27468      6.22058        -0.090989      0.335841     -0.218150
H       0.49779      1.70663      6.45626        -0.164935      0.005237      0.541688
H       0.14743      2.76193      1.05876        -0.026566     -0.499204     -0.179965
N       0.63407      2.63108      0.16945         0.282050      0.159615     -0.144252
