  # total energy =   -19.39038439 
CRSYTAL
PRIMVEC
     6.7020160000000004    0.0000000000000000    0.0000000000000000
     0.0000000000000000    6.7020160000000004    0.0000000000000000
     0.0000000000000000    0.0000000000000000    6.7020160000000004
PRESSURE
-0.790407 0.029419 -1.02197 -0.214907 -0.076398 0.176658
PRIMCOORD
4 1
H       6.60697      3.68648      5.69574         0.463518      0.184087      0.483352
H       1.40822      3.19349      6.45419        -1.170849      0.337614     -0.335991
H       0.10411      3.64184      0.73903         0.189182     -0.255557     -1.626075
N       0.36844      3.25257      6.49705         0.518521     -0.266322      1.477740
