  # total energy =   -19.21333071 
CRSYTAL
PRIMVEC
     6.7020160000000004    0.0000000000000000    0.0000000000000000
     0.0000000000000000    6.7020160000000004    0.0000000000000000
     0.0000000000000000    0.0000000000000000    6.7020160000000004
PRESSURE
0.729083 0.360634 1.34979 -0.633605 0.223386 -0.1073
PRIMCOORD
4 1
H       1.66102      1.67647      0.18207         0.670059     -0.055846     -0.169597
H       6.69304      1.60758      0.38412        -0.937821      0.081327     -0.430002
H       0.94935      1.07991      1.62587         0.528427     -1.384884      2.663011
N       0.88805      1.48760      0.77104        -0.261986      1.360002     -2.062472
