  # total energy =   -19.36763653 
CRSYTAL
PRIMVEC
     6.7020160000000004    0.0000000000000000    0.0000000000000000
     0.0000000000000000    6.7020160000000004    0.0000000000000000
     0.0000000000000000    0.0000000000000000    6.7020160000000004
PRESSURE
-0.66787 -0.571122 0.131191 0.443673 0.161099 0.020901
PRIMCOORD
4 1
H       0.38627      3.97412      5.29779         0.037018      0.142465     -0.988884
H       6.27982      5.54951      5.17374         0.695127     -0.996317     -0.306059
H       5.93032      4.44462      6.33409         1.211343      0.568183     -0.645873
N       0.03332      4.80954      5.73996        -1.943301      0.284846      1.940882
