  # total energy =   -19.41167911 
CRSYTAL
PRIMVEC
     6.7020160000000004    0.0000000000000000    0.0000000000000000
     0.0000000000000000    6.7020160000000004    0.0000000000000000
     0.0000000000000000    0.0000000000000000    6.7020160000000004
PRESSURE
-0.619464 -0.563207 -1.02692 0.128879 0.72111 -0.219614
PRIMCOORD
4 1
H       6.56739      3.65426      5.21813        -0.165012      0.179755      0.535450
H       0.49055      5.10305      5.73217        -0.618219     -1.029647      0.647767
H       6.11120      4.21516      0.09443         1.376827      0.072231     -1.715517
N       0.19294      4.14802      6.06100        -0.593404      0.777451      0.532757
