  # total energy =   -19.42157969 
CRSYTAL
PRIMVEC
     6.7020160000000004    0.0000000000000000    0.0000000000000000
     0.0000000000000000    6.7020160000000004    0.0000000000000000
     0.0000000000000000    0.0000000000000000    6.7020160000000004
PRESSURE
-0.204164 -0.382995 0.445345 0.229732 -0.084318 0.183919
PRIMCOORD
4 1
H       1.07782      2.75882      0.13295         0.333333     -0.770729      0.168976
H       6.55416      1.78877      0.16571         0.449889     -0.532846     -0.003877
H       0.61391      2.10701      1.48306         0.151475     -0.082481      0.961022
N       0.82747      1.82116      0.53661        -0.934425      1.385347     -1.126555
