  # total energy =   -19.18293368 
CRSYTAL
PRIMVEC
     6.7020160000000004    0.0000000000000000    0.0000000000000000
     0.0000000000000000    6.7020160000000004    0.0000000000000000
     0.0000000000000000    0.0000000000000000    6.7020160000000004
PRESSURE
-0.491169 -0.129108 -1.55787 0.53746 0.048545 -0.079383
PRIMCOORD
4 1
H       1.62631      1.90066      0.12760        -0.195051     -0.310705      0.904512
H       6.63828      1.58512      0.28854         0.832438     -0.049313      0.523540
H       0.91934      1.23159      1.72674         0.332906      0.800464     -2.143718
N       0.86939      1.56164      0.72188        -0.969319     -0.441040      0.714978
