  # total energy =   -19.46655846 
CRSYTAL
PRIMVEC
     6.7020160000000004    0.0000000000000000    0.0000000000000000
     0.0000000000000000    6.7020160000000004    0.0000000000000000
     0.0000000000000000    0.0000000000000000    6.7020160000000004
PRESSURE
0.063469 0.413559 -0.353871 -0.284564 0.179255 0.092081
PRIMCOORD
4 1
H       0.23077      3.27305      6.22097        -0.158320      0.427602     -0.174946
H       0.50686      1.71379      6.45542        -0.286958     -0.650777      0.357378
H       0.16825      2.76290      1.08474         0.121379     -0.580643     -0.675490
N       0.63314      2.61867      0.17396         0.322821      0.804849      0.491945
