  # total energy =   -19.24902980 
CRSYTAL
PRIMVEC
     6.7020160000000004    0.0000000000000000    0.0000000000000000
     0.0000000000000000    6.7020160000000004    0.0000000000000000
     0.0000000000000000    0.0000000000000000    6.7020160000000004
PRESSURE
0.52256 1.17458 0.026094 0.004718 -0.09448 -0.695606
PRIMCOORD
4 1
H       0.34330      4.22710      5.10038         1.399464     -2.158051     -0.070499
H       6.24871      5.33391      4.90982        -0.918629      1.532974      0.068025
H       5.94108      4.48799      6.22812        -0.108132     -0.166682      0.153176
N       0.00483      4.92445      5.71654        -0.372819      0.792560     -0.150732
