  # total energy =   -19.21215930 
CRSYTAL
PRIMVEC
     6.7020160000000004    0.0000000000000000    0.0000000000000000
     0.0000000000000000    6.7020160000000004    0.0000000000000000
     0.0000000000000000    0.0000000000000000    6.7020160000000004
PRESSURE
-1.07895 -0.307899 -1.04304 0.6115 -0.19411 0.270107
PRIMCOORD
4 1
H       1.75416      1.48318      0.23174        -1.082208     -0.043220      0.157344
H       6.66210      1.62401      0.42870         1.063940     -0.429040      0.256014
H       1.03037      0.87336      1.70044        -0.649892      1.078286     -1.980083
N       0.90008      1.43368      0.80211         0.668686     -0.605584      1.567022
