  # total energy =   -19.47515703 
CRSYTAL
PRIMVEC
     6.7020160000000004    0.0000000000000000    0.0000000000000000
     0.0000000000000000    6.7020160000000004    0.0000000000000000
     0.0000000000000000    0.0000000000000000    6.7020160000000004
PRESSURE
0.544424 0.250308 0.092974 0.122202 0.268032 0.153989
PRIMCOORD
4 1
H       1.29222      2.53366      0.11357         0.240977      0.489400      0.253637
H       6.60952      1.70085      0.19693        -1.011277     -0.100131     -0.430104
H       0.73590      1.86352      1.57922         0.229319      0.417029      0.141193
N       0.82385      1.77199      0.57605         0.539478     -0.805300      0.037046
