  # total energy =   -19.27387863 
CRSYTAL
PRIMVEC
     6.7020160000000004    0.0000000000000000    0.0000000000000000
     0.0000000000000000    6.7020160000000004    0.0000000000000000
     0.0000000000000000    0.0000000000000000    6.7020160000000004
PRESSURE
0.401722 0.234146 0.824202 0.073564 0.053112 -0.230053
PRIMCOORD
4 1
H       6.67964      3.58336      5.73632        -0.526424      0.478967     -0.249399
H       1.32959      2.89549      6.35999         0.471167     -0.019555      0.618635
H       0.05851      3.44882      0.72290        -0.272771      0.602464      1.703231
N       0.39816      3.20011      6.55236         0.327863     -1.061619     -2.072452
