  # total energy =   -19.46222488 
CRSYTAL
PRIMVEC
     6.7020160000000004    0.0000000000000000    0.0000000000000000
     0.0000000000000000    6.7020160000000004    0.0000000000000000
     0.0000000000000000    0.0000000000000000    6.7020160000000004
PRESSURE
0.348803 0.058358 0.546024 0.454459 -0.245985 -0.065072
PRIMCOORD
4 1
H       6.53330      3.89026      5.56136        -0.043436     -0.461349      0.073300
H       1.22672      3.92567      6.27913         0.411327     -0.073855      0.260163
H       6.57684      3.94831      0.42169        -0.610189      0.628638      1.495444
N       0.31709      3.47705      6.37564         0.242872     -0.093863     -1.829389
