  # total energy =   -19.37820123 
CRSYTAL
PRIMVEC
     6.7020160000000004    0.0000000000000000    0.0000000000000000
     0.0000000000000000    6.7020160000000004    0.0000000000000000
     0.0000000000000000    0.0000000000000000    6.7020160000000004
PRESSURE
0.475413 0.394195 0.088259 0.262181 -0.526301 0.20862
PRIMCOORD
4 1
H       6.52207      3.78708      5.18050         0.154517     -0.828359      0.230180
H       0.23563      5.14808      5.61488         0.602875      0.425112      0.518012
H       6.06603      4.30806      6.58321        -1.106084     -0.073633      1.104842
N       0.19478      4.21204      6.04312         0.349056      0.477977     -1.853223
