  # total energy =   -19.47562466 
CRSYTAL
PRIMVEC
     6.7020160000000004    0.0000000000000000    0.0000000000000000
     0.0000000000000000    6.7020160000000004    0.0000000000000000
     0.0000000000000000    0.0000000000000000    6.7020160000000004
PRESSURE
-0.14486 0.058958 -0.715235 -0.215407 0.025726 0.000821
PRIMCOORD
4 1
H       6.66646      3.26587      5.98238         0.242912      0.234427      0.682760
H       0.67980      1.93435      6.40921         0.091469     -0.021037      0.671605
H       6.69730      2.91013      0.90991         0.304437     -0.269326     -0.675954
N       0.56799      2.89981      0.04400        -0.638250      0.056609     -0.678488
