  # total energy =   -19.44913003 
CRSYTAL
PRIMVEC
     6.7020160000000004    0.0000000000000000    0.0000000000000000
     0.0000000000000000    6.7020160000000004    0.0000000000000000
     0.0000000000000000    0.0000000000000000    6.7020160000000004
PRESSURE
-0.434327 -0.360704 -0.128772 0.22391 -0.042707 0.121727
PRIMCOORD
4 1
H       1.10971      2.73106      0.11625         0.183545     -0.752895      0.457905
H       6.54684      1.78111      0.16521         0.823728     -0.432020      0.205453
H       0.62356      2.06630      1.51937         0.316586     -0.065701      0.036559
N       0.82893      1.81234      0.54280        -1.323671      1.251438     -0.699922
