  # total energy =   -19.30189111 
CRSYTAL
PRIMVEC
     6.7020160000000004    0.0000000000000000    0.0000000000000000
     0.0000000000000000    6.7020160000000004    0.0000000000000000
     0.0000000000000000    0.0000000000000000    6.7020160000000004
PRESSURE
0.088615 -0.508341 0.443571 0.217161 -0.025191 -0.07598
PRIMCOORD
4 1
H       0.72416      3.24441      6.40736        -0.235462     -0.727220      0.097329
H       0.43847      1.48810      6.60223        -0.092029      0.375534     -0.238820
H       0.52611      2.52690      1.24490        -0.220538      0.137264      0.844722
N       0.64616      2.40211      0.27216         0.546791      0.212897     -0.703973
