  # total energy =   -19.33126717 
CRSYTAL
PRIMVEC
     6.7020160000000004    0.0000000000000000    0.0000000000000000
     0.0000000000000000    6.7020160000000004    0.0000000000000000
     0.0000000000000000    0.0000000000000000    6.7020160000000004
PRESSURE
-0.190112 0.220775 0.835351 0.255745 -0.112415 -0.048262
PRIMCOORD
4 1
H       6.65324      3.61632      5.71829        -0.157913      0.323980      0.041761
H       1.37406      3.00258      6.38972        -0.577836      0.333579      0.396611
H       0.08290      3.50792      0.70233        -0.484563      0.909631      1.931121
N       0.38515      3.22223      6.53372         1.220119     -1.568140     -2.369322
