  # total energy =   -19.23830181 
CRSYTAL
PRIMVEC
     6.7020160000000004    0.0000000000000000    0.0000000000000000
     0.0000000000000000    6.7020160000000004    0.0000000000000000
     0.0000000000000000    0.0000000000000000    6.7020160000000004
PRESSURE
0.70057 0.691672 1.46943 -0.835772 -0.043727 -0.042779
PRIMCOORD
4 1
H       1.71332      1.29927      0.26351         0.445820      0.124378     -1.173999
H       0.03452      1.58139      0.48177        -1.139065     -0.009928     -0.703030
H       1.01140      0.77597      1.57547        -0.322774     -2.042834      2.490682
N       0.92015      1.37968      0.84591         1.016159      1.927540     -0.613299
