  # total energy =   -19.34155726 
CRSYTAL
PRIMVEC
     6.7020160000000004    0.0000000000000000    0.0000000000000000
     0.0000000000000000    6.7020160000000004    0.0000000000000000
     0.0000000000000000    0.0000000000000000    6.7020160000000004
PRESSURE
0.142256 0.088116 0.410868 0.095122 -0.018476 0.058847
PRIMCOORD
4 1
H       0.90799      3.04548      6.50356        -0.179327     -0.011875      0.060943
H       0.23414      1.47396      6.61196        -0.380767     -0.218512     -0.031749
H       0.61892      2.35980      1.33734        -0.314424      0.074479      0.836213
N       0.69414      2.23530      0.36086         0.874539      0.155460     -0.866114
