  # total energy =   -19.43737207 
CRSYTAL
PRIMVEC
     6.7020160000000004    0.0000000000000000    0.0000000000000000
     0.0000000000000000    6.7020160000000004    0.0000000000000000
     0.0000000000000000    0.0000000000000000    6.7020160000000004
PRESSURE
0.174868 0.314585 -0.367576 -0.353948 0.298175 -0.101922
PRIMCOORD
4 1
H       0.00492      3.30921      5.96005        -0.614853      0.516525     -0.137834
H       0.81893      2.01608      6.40206        -0.046523     -0.447083      0.628079
H       0.05151      2.99105      0.92119         0.083817     -0.459262     -0.641268
N       0.53801      2.93302      0.01988         0.576980      0.389166      0.150956
