  # total energy =   -19.20524343 
CRSYTAL
PRIMVEC
     6.7020160000000004    0.0000000000000000    0.0000000000000000
     0.0000000000000000    6.7020160000000004    0.0000000000000000
     0.0000000000000000    0.0000000000000000    6.7020160000000004
PRESSURE
0.097505 0.113354 -0.626071 0.246931 0.009818 -0.104208
PRIMCOORD
4 1
H       6.67566      3.53049      5.91583         0.042571     -0.325980     -0.359508
H       1.12183      2.29400      6.57414         0.271791     -0.413049     -1.010612
H       0.13645      3.11629      0.91553         0.067921      0.209305     -1.494768
N       0.47052      3.04166      6.63191        -0.382072      0.528337      2.865393
