  # total energy =   -19.20590022 
CRSYTAL
PRIMVEC
     6.7020160000000004    0.0000000000000000    0.0000000000000000
     0.0000000000000000    6.7020160000000004    0.0000000000000000
     0.0000000000000000    0.0000000000000000    6.7020160000000004
PRESSURE
0.612915 -0.699718 0.175919 0.12462 0.413172 0.155952
PRIMCOORD
4 1
H       6.64244      3.99443      5.65226        -0.838441     -0.993776     -0.413924
H       1.21914      3.86905      6.25340         1.127393     -0.470824      0.778260
H       6.62088      4.00113      0.45640         0.427299     -0.793768      0.184083
N       0.32875      3.38948      6.41116        -0.715278      2.258660     -0.548366
