  # total energy =   -19.14022335 
CRSYTAL
PRIMVEC
     6.7020160000000004    0.0000000000000000    0.0000000000000000
     0.0000000000000000    6.7020160000000004    0.0000000000000000
     0.0000000000000000    0.0000000000000000    6.7020160000000004
PRESSURE
0.160751 -1.0809 -0.205816 -0.056489 0.59868 0.114061
PRIMCOORD
4 1
H       6.65574      4.00370      5.66762        -0.754140     -1.124200     -0.248232
H       1.24690      3.84918      6.26026         0.370306     -0.847399      0.876570
H       6.63024      4.01368      0.48859         0.800602     -1.403026     -0.570011
N       0.33107      3.36777      6.41872        -0.416762      3.375499     -0.058030
