  # total energy =   -19.17613205 
CRSYTAL
PRIMVEC
     6.7020160000000004    0.0000000000000000    0.0000000000000000
     0.0000000000000000    6.7020160000000004    0.0000000000000000
     0.0000000000000000    0.0000000000000000    6.7020160000000004
PRESSURE
-1.05491 -0.20113 -1.47499 -0.050556 0.7571 -0.377883
PRIMCOORD
4 1
H       6.56234      3.46376      5.33226         0.013517      0.343196      0.820621
H       1.09787      4.44553      6.06882        -1.338099     -0.585224      0.498524
H       6.34745      3.90455      0.38644         1.416038      0.141743     -2.221968
N       0.22647      3.88974      6.18876        -0.091127      0.100674      0.903356
