  # total energy =   -19.23139735 
CRSYTAL
PRIMVEC
     6.7020160000000004    0.0000000000000000    0.0000000000000000
     0.0000000000000000    6.7020160000000004    0.0000000000000000
     0.0000000000000000    0.0000000000000000    6.7020160000000004
PRESSURE
0.478444 0.819935 1.13788 -0.016165 -0.426192 -0.242217
PRIMCOORD
4 1
H       0.38477      3.94589      5.35796         0.831362     -1.150325     -1.937311
H       6.37433      5.54914      5.29115        -0.017622      0.676098     -1.659306
H       6.00575      4.45566      6.35203        -0.783280     -0.276304      0.974845
N       0.03505      4.76051      5.75264        -0.029380      0.750797      2.621289
