  # total energy =   -19.42463923 
CRSYTAL
PRIMVEC
     6.7020160000000004    0.0000000000000000    0.0000000000000000
     0.0000000000000000    6.7020160000000004    0.0000000000000000
     0.0000000000000000    0.0000000000000000    6.7020160000000004
PRESSURE
0.064708 0.654063 -0.58853 -0.068305 0.191237 0.165463
PRIMCOORD
4 1
H       0.27943      3.27838      6.21888        -0.104891      0.228327      0.159617
H       0.51695      1.71177      6.46057        -0.410360     -1.324989      0.092298
H       0.20792      2.75281      1.11673         0.121892     -0.578210     -1.011387
N       0.63196      2.59782      0.18278         0.391938      1.675170      0.759126
