  # total energy =   -19.21322481 
CRSYTAL
PRIMVEC
     6.7020160000000004    0.0000000000000000    0.0000000000000000
     0.0000000000000000    6.7020160000000004    0.0000000000000000
     0.0000000000000000    0.0000000000000000    6.7020160000000004
PRESSURE
1.11195 0.254262 1.33785 0.186689 -0.526026 0.299001
PRIMCOORD
4 1
H       6.50822      3.51228      5.40568        -0.393556     -0.138683     -0.566130
H       1.13931      4.18690      6.15400         1.281899      0.784107      0.140719
H       6.43497      3.83817      0.33468        -1.513517      0.384531      2.612390
N       0.25422      3.78879      6.24514         0.624766     -1.031523     -2.187123
