  # total energy =   -19.07616978 
CRSYTAL
PRIMVEC
     6.7020160000000004    0.0000000000000000    0.0000000000000000
     0.0000000000000000    6.7020160000000004    0.0000000000000000
     0.0000000000000000    0.0000000000000000    6.7020160000000004
PRESSURE
-0.740119 -1.66255 -0.691835 -0.047231 -0.065271 -0.38842
PRIMCOORD
4 1
H       1.47217      0.71661      0.14832        -0.030575      1.125722      1.015889
H       0.08210      1.37758      0.54576         1.127726      0.375496      0.689611
H       0.70338      0.17975      1.41460         0.934351      2.623983     -0.267303
N       1.03355      1.19505      1.01141        -2.031605     -4.126453     -1.439017
