  # total energy =   -19.43945145 
CRSYTAL
PRIMVEC
     6.7020160000000004    0.0000000000000000    0.0000000000000000
     0.0000000000000000    6.7020160000000004    0.0000000000000000
     0.0000000000000000    0.0000000000000000    6.7020160000000004
PRESSURE
0.430131 -0.054479 0.630745 -0.286959 -0.486669 -0.034177
PRIMCOORD
4 1
H       6.66113      3.69591      5.22512         0.424098      0.554266     -0.381264
H       0.10348      5.34846      5.58247         0.182458      0.320284     -0.779165
H       6.00169      4.34346      6.46409        -1.032408     -0.054536      1.191989
N       0.14245      4.40792      5.94145         0.425946     -0.819471     -0.031441
