  # total energy =   -19.22757937 
CRSYTAL
PRIMVEC
     6.7020160000000004    0.0000000000000000    0.0000000000000000
     0.0000000000000000    6.7020160000000004    0.0000000000000000
     0.0000000000000000    0.0000000000000000    6.7020160000000004
PRESSURE
-1.2783 -1.29138 -0.453612 -0.295287 0.137389 0.014652
PRIMCOORD
4 1
H       6.56013      3.68590      5.18579         0.831739      1.274059      0.775460
H       0.07659      5.34875      5.59705         0.537299     -1.574782     -0.031155
H       5.89875      4.36651      6.49143         2.152030     -0.279658     -0.516688
N       0.17520      4.34755      5.97276        -3.521023      0.579650     -0.227359
