  # total energy =   -19.30432367 
CRSYTAL
PRIMVEC
     6.7020160000000004    0.0000000000000000    0.0000000000000000
     0.0000000000000000    6.7020160000000004    0.0000000000000000
     0.0000000000000000    0.0000000000000000    6.7020160000000004
PRESSURE
0.153873 0.336788 -0.283236 -0.254935 0.002032 0.152875
PRIMCOORD
4 1
H       0.87941      3.08678      6.51251        -0.041438      0.462998     -0.598861
H       0.29920      1.46416      6.60730        -0.431934     -0.402274     -0.179443
H       0.61814      2.42329      1.35003        -0.202434     -0.404054     -0.891098
N       0.67990      2.27115      0.33704         0.675857      0.343358      1.668892
