  # total energy =   -19.42359729 
CRSYTAL
PRIMVEC
     6.7020160000000004    0.0000000000000000    0.0000000000000000
     0.0000000000000000    6.7020160000000004    0.0000000000000000
     0.0000000000000000    0.0000000000000000    6.7020160000000004
PRESSURE
0.570335 0.239612 0.407522 -0.041694 -0.302373 0.103119
PRIMCOORD
4 1
H       6.44210      3.70020      5.50146         0.119450      0.381717     -0.396735
H       1.21744      3.95833      6.33087         0.965867      0.592004     -0.577469
H       6.53232      3.90463      0.44158        -0.579407      0.284401      0.554619
N       0.30184      3.58474      6.32530        -0.504603     -1.258429      0.418991
