  # total energy =   -19.41928642 
CRSYTAL
PRIMVEC
     6.7020160000000004    0.0000000000000000    0.0000000000000000
     0.0000000000000000    6.7020160000000004    0.0000000000000000
     0.0000000000000000    0.0000000000000000    6.7020160000000004
PRESSURE
-0.27661 0.003808 -0.886236 -0.316244 -0.235965 0.077789
PRIMCOORD
4 1
H       6.59763      3.73170      5.70015         0.454165      0.243013      0.260547
H       1.38500      3.30847      6.47805        -0.317889      0.151474     -0.682964
H       0.11940      3.70866      0.71141        -0.095427     -0.433145     -1.557694
N       0.36109      3.26762      6.48041        -0.041501      0.039001      1.979610
