  # total energy =   -19.21042434 
CRSYTAL
PRIMVEC
     6.7020160000000004    0.0000000000000000    0.0000000000000000
     0.0000000000000000    6.7020160000000004    0.0000000000000000
     0.0000000000000000    0.0000000000000000    6.7020160000000004
PRESSURE
0.671918 0.875904 0.211956 -0.351488 -0.403511 0.117936
PRIMCOORD
4 1
H       0.33106      3.87725      5.16389        -0.535133     -0.581227      0.762887
H       0.09091      5.41178      5.35013        -0.593661      1.386517      0.138139
H       6.11211      4.39677      6.54362        -2.088522     -0.519055      1.459739
N       0.05968      4.56650      5.86141         3.215898     -0.285584     -2.360373
