  # total energy =   -19.35507938 
CRSYTAL
PRIMVEC
     6.7020160000000004    0.0000000000000000    0.0000000000000000
     0.0000000000000000    6.7020160000000004    0.0000000000000000
     0.0000000000000000    0.0000000000000000    6.7020160000000004
PRESSURE
0.507223 0.147257 0.732131 -0.136433 -0.520144 0.075823
PRIMCOORD
4 1
H       6.57588      3.52983      5.31263        -0.046781      0.280947     -0.429271
H       0.67175      4.95281      5.93671         0.195540      0.487428     -0.659124
H       6.27500      4.14205      0.13027        -1.297408      0.030988      1.270604
N       0.18918      4.09438      6.07867         1.148895     -0.799204     -0.181462
