  # total energy =   -19.34389606 
CRSYTAL
PRIMVEC
     6.7020160000000004    0.0000000000000000    0.0000000000000000
     0.0000000000000000    6.7020160000000004    0.0000000000000000
     0.0000000000000000    0.0000000000000000    6.7020160000000004
PRESSURE
-0.037769 -0.558619 0.718953 -0.062712 -0.458948 -0.280646
PRIMCOORD
4 1
H       6.63633      3.24944      6.08380         0.468584      0.231931     -0.217587
H       0.52116      1.82734      6.50461         0.730806      1.073628     -0.100050
H       6.65240      2.77034      0.82646        -0.455630      0.432509      1.556093
N       0.60165      2.85678      0.06870        -0.743590     -1.738494     -1.237969
