  # total energy =   -19.37273644 
CRSYTAL
PRIMVEC
     6.7020160000000004    0.0000000000000000    0.0000000000000000
     0.0000000000000000    6.7020160000000004    0.0000000000000000
     0.0000000000000000    0.0000000000000000    6.7020160000000004
PRESSURE
0.567067 1.16592 0.893521 -0.655679 -0.460438 0.135734
PRIMCOORD
4 1
H       1.48974      0.70152      0.23325         0.829629      0.063618     -1.053762
H       0.18938      1.47173      0.67557        -0.481290      0.605783     -0.219216
H       0.73715      0.26423      1.43965        -0.925198     -2.411496      1.881963
N       1.04806      1.08899      1.04435         0.577387      1.740677     -0.608008
