  # total energy =   -19.33825921 
CRSYTAL
PRIMVEC
     6.7020160000000004    0.0000000000000000    0.0000000000000000
     0.0000000000000000    6.7020160000000004    0.0000000000000000
     0.0000000000000000    0.0000000000000000    6.7020160000000004
PRESSURE
0.170859 -0.845176 -0.07521 0.180175 -0.257053 0.007338
PRIMCOORD
4 1
H       0.46842      3.30213      6.24904        -0.061908     -0.929979      1.037427
H       0.51498      1.58877      6.50115        -0.154866      0.925286      0.628613
H       0.36722      2.65767      1.16072        -0.626701      0.106360      0.897751
N       0.63092      2.52523      0.22045         0.842507     -0.101507     -2.563163
