  # total energy =   -19.42090714 
CRSYTAL
PRIMVEC
     6.7020160000000004    0.0000000000000000    0.0000000000000000
     0.0000000000000000    6.7020160000000004    0.0000000000000000
     0.0000000000000000    0.0000000000000000    6.7020160000000004
PRESSURE
0.069654 0.634717 -0.609234 -0.030163 0.170139 0.172879
PRIMCOORD
4 1
H       0.28893      3.28018      6.21855        -0.085024      0.155236      0.242204
H       0.51811      1.70863      6.46196        -0.417337     -1.337463      0.078448
H       0.21625      2.74941      1.12097         0.089828     -0.558248     -0.997136
N       0.63178      2.59386      0.18468         0.411329      1.740603      0.676345
