  # total energy =   -19.40830703 
CRSYTAL
PRIMVEC
     6.7020160000000004    0.0000000000000000    0.0000000000000000
     0.0000000000000000    6.7020160000000004    0.0000000000000000
     0.0000000000000000    0.0000000000000000    6.7020160000000004
PRESSURE
-0.701658 -0.757531 -1.02081 0.675081 0.155416 0.149624
PRIMCOORD
4 1
H       1.64484      1.07964      0.15120        -0.817371      0.054281      0.793399
H       0.03197      1.48512      0.46403         0.809502     -0.391666      0.397332
H       0.88969      0.48205      1.59233         0.050384      1.662087     -1.672639
N       0.96157      1.32223      0.90759        -0.041814     -1.324215      0.481471
