  # total energy =   -19.34233931 
CRSYTAL
PRIMVEC
     6.7020160000000004    0.0000000000000000    0.0000000000000000
     0.0000000000000000    6.7020160000000004    0.0000000000000000
     0.0000000000000000    0.0000000000000000    6.7020160000000004
PRESSURE
0.831982 0.597667 1.18644 0.031815 -0.659829 0.257949
PRIMCOORD
4 1
H       6.58207      3.57074      5.30394        -0.326232     -0.222032     -0.910050
H       0.61373      4.97719      5.88774         0.454544      1.139591     -0.617011
H       6.25836      4.16012      0.09159        -1.942238      0.132093      1.971136
N       0.18783      4.11121      6.07348         1.813912     -1.049067     -0.442842
