  # total energy =   -19.15732426 
CRSYTAL
PRIMVEC
     6.7020160000000004    0.0000000000000000    0.0000000000000000
     0.0000000000000000    6.7020160000000004    0.0000000000000000
     0.0000000000000000    0.0000000000000000    6.7020160000000004
PRESSURE
0.61141 -0.302155 0.945826 -0.345915 0.078133 0.519596
PRIMCOORD
4 1
H       0.95418      2.85399      0.20020         0.885375     -0.167225     -1.275041
H       6.58361      1.78548      0.15095        -1.109188     -0.777692     -0.681922
H       0.56828      2.29460      1.40317         0.026669     -1.081069      1.282431
N       0.81826      1.87134      0.50137         0.196074      2.025327      0.675277
