  # total energy =   -19.44035029 
CRSYTAL
PRIMVEC
     6.7020160000000004    0.0000000000000000    0.0000000000000000
     0.0000000000000000    6.7020160000000004    0.0000000000000000
     0.0000000000000000    0.0000000000000000    6.7020160000000004
PRESSURE
0.5616 0.361849 0.008946 -0.447082 -0.315397 0.110164
PRIMCOORD
4 1
H       0.36007      4.11438      5.13225         0.210769     -0.058776      0.655059
H       6.24878      5.40242      4.98320        -0.179820      0.677160      0.120896
H       5.96215      4.49324      6.23567        -1.182877     -0.724693      1.004489
N       0.01355      4.88546      5.73062         1.151339      0.107251     -1.780834
