  # total energy =   -19.18349916 
CRSYTAL
PRIMVEC
     6.7020160000000004    0.0000000000000000    0.0000000000000000
     0.0000000000000000    6.7020160000000004    0.0000000000000000
     0.0000000000000000    0.0000000000000000    6.7020160000000004
PRESSURE
-1.46503 -1.01934 -0.467494 -0.175961 0.138622 0.166196
PRIMCOORD
4 1
H       6.53072      3.71307      5.18201         0.854370      0.808116      0.705664
H       0.07557      5.31581      5.59929         0.704033     -1.406951      0.126211
H       5.89004      4.37217      6.49878         2.392636     -0.444486     -0.530835
N       0.18593      4.31857      5.98771        -3.950641      1.044064     -0.300540
