  # total energy =   -19.33945539 
CRSYTAL
PRIMVEC
     6.7020160000000004    0.0000000000000000    0.0000000000000000
     0.0000000000000000    6.7020160000000004    0.0000000000000000
     0.0000000000000000    0.0000000000000000    6.7020160000000004
PRESSURE
-0.345088 -0.038021 -1.11601 -0.02137 -0.041232 -0.347642
PRIMCOORD
4 1
H       0.93706      2.92338      6.51993        -0.169017      0.503150      0.589463
H       0.02044      1.51853      6.66357         0.887800      0.880206      0.646631
H       0.54816      2.20871      1.43421         0.217406      0.643361     -1.404584
N       0.74545      2.13088      0.41310        -0.936003     -2.026991      0.168965
