  # total energy =   -19.26130791 
CRSYTAL
PRIMVEC
     6.7020160000000004    0.0000000000000000    0.0000000000000000
     0.0000000000000000    6.7020160000000004    0.0000000000000000
     0.0000000000000000    0.0000000000000000    6.7020160000000004
PRESSURE
1.06926 -0.137705 0.763873 0.461127 0.028582 0.095344
PRIMCOORD
4 1
H       6.61353      3.96872      5.62634        -0.770847     -0.803688     -0.502955
H       1.19873      3.88906      6.25489         1.754947     -0.017095      0.572007
H       6.61353      3.97496      0.41823        -0.396331      0.335740      1.575961
N       0.32503      3.42007      6.40061        -0.587846      0.484298     -1.644816
