  # total energy =   -19.18794831 
CRSYTAL
PRIMVEC
     6.7020160000000004    0.0000000000000000    0.0000000000000000
     0.0000000000000000    6.7020160000000004    0.0000000000000000
     0.0000000000000000    0.0000000000000000    6.7020160000000004
PRESSURE
-0.478763 -1.15912 -0.357638 -0.154866 0.497895 -0.096943
PRIMCOORD
4 1
H       6.65869      3.97837      5.69558        -0.393382     -1.059344     -0.064078
H       1.31372      3.76410      6.31132        -0.835829     -1.145338      0.641449
H       6.68575      3.98122      0.53440         0.674761     -1.521794     -0.808087
N       0.33584      3.32797      6.43633         0.554183      3.725729      0.230485
