  # total energy =   -19.31473687 
CRSYTAL
PRIMVEC
     6.7020160000000004    0.0000000000000000    0.0000000000000000
     0.0000000000000000    6.7020160000000004    0.0000000000000000
     0.0000000000000000    0.0000000000000000    6.7020160000000004
PRESSURE
-0.38164 0.072306 -0.403995 -0.014611 0.290653 -0.033072
PRIMCOORD
4 1
H       6.47248      3.52322      5.41000         0.077122      0.172820      0.024058
H       1.19599      4.13730      6.19371        -0.302382      0.109550      0.099519
H       6.40917      3.83564      0.41480         0.689107      0.145973     -0.834888
N       0.26505      3.75347      6.25657        -0.464520     -0.427166      0.711741
