  # total energy =   -19.47672327 
CRSYTAL
PRIMVEC
     6.7020160000000004    0.0000000000000000    0.0000000000000000
     0.0000000000000000    6.7020160000000004    0.0000000000000000
     0.0000000000000000    0.0000000000000000    6.7020160000000004
PRESSURE
0.373807 0.739056 0.570747 -0.413736 -0.282306 0.080779
PRIMCOORD
4 1
H       1.51544      0.71152      0.22972         0.475434     -0.014730     -0.630235
H       0.20855      1.50818      0.70097        -0.347489      0.371959     -0.154062
H       0.73081      0.24873      1.48927        -0.583477     -1.488448      1.133830
N       1.05041      1.06815      1.04912         0.455687      1.130614     -0.349266
