  # total energy =   -19.44987563 
CRSYTAL
PRIMVEC
     6.7020160000000004    0.0000000000000000    0.0000000000000000
     0.0000000000000000    6.7020160000000004    0.0000000000000000
     0.0000000000000000    0.0000000000000000    6.7020160000000004
PRESSURE
-0.699062 -0.054168 -0.752753 -0.345638 0.136683 0.040724
PRIMCOORD
4 1
H       6.45367      3.76432      5.50846         0.433527      0.232123      0.236514
H       1.25815      3.95173      6.32403        -0.747268     -0.059844     -0.330097
H       6.51835      3.94370      0.49207         0.708284     -0.534254     -1.424633
N       0.30855      3.54340      6.33995        -0.393759      0.362395      1.518815
