  # total energy =   -19.34359745 
CRSYTAL
PRIMVEC
     6.7020160000000004    0.0000000000000000    0.0000000000000000
     0.0000000000000000    6.7020160000000004    0.0000000000000000
     0.0000000000000000    0.0000000000000000    6.7020160000000004
PRESSURE
0.186049 0.144881 0.472499 0.026742 -0.520926 -0.056385
PRIMCOORD
4 1
H       6.43278      3.59356      5.45099         0.355923      0.330045      0.018471
H       1.21689      4.03103      6.28766         0.167479      0.295895     -0.439500
H       6.48750      3.85098      0.41398        -0.820691      0.400272      1.115177
N       0.28451      3.66846      6.29287         0.297312     -1.025201     -0.695011
