  # total energy =   -19.26527874 
CRSYTAL
PRIMVEC
     6.7020160000000004    0.0000000000000000    0.0000000000000000
     0.0000000000000000    6.7020160000000004    0.0000000000000000
     0.0000000000000000    0.0000000000000000    6.7020160000000004
PRESSURE
-0.626765 -0.139119 -0.990014 -0.05485 0.474493 -0.240519
PRIMCOORD
4 1
H       6.57287      3.45926      5.33418        -0.023002      0.282246      0.582274
H       1.05279      4.50422      6.06474        -0.838557     -0.365035      0.294152
H       6.35664      3.93003      0.35129         0.889737      0.104827     -1.511440
N       0.21935      3.91662      6.17415        -0.027019     -0.021945      0.636041
