  # total energy =   -19.30722051 
CRSYTAL
PRIMVEC
     6.7020160000000004    0.0000000000000000    0.0000000000000000
     0.0000000000000000    6.7020160000000004    0.0000000000000000
     0.0000000000000000    0.0000000000000000    6.7020160000000004
PRESSURE
-0.111786 -0.510026 0.764901 -0.007029 -0.344418 -0.35984
PRIMCOORD
4 1
H       6.63641      3.24851      6.10182         0.400991      0.282605     -0.423410
H       0.50046      1.81927      6.52215         0.835689      0.986105     -0.290951
H       6.64095      2.74986      0.82434        -0.222397      0.565246      1.438902
N       0.60667      2.84893      0.07159        -1.014069     -1.834335     -0.723914
