  # total energy =   -19.29564021 
CRSYTAL
PRIMVEC
     6.7020160000000004    0.0000000000000000    0.0000000000000000
     0.0000000000000000    6.7020160000000004    0.0000000000000000
     0.0000000000000000    0.0000000000000000    6.7020160000000004
PRESSURE
0.019396 -0.66236 -0.316115 -0.338656 -0.086657 -0.204746
PRIMCOORD
4 1
H       0.85689      3.13503      6.49394        -0.237106     -0.350677     -0.217380
H       0.32082      1.43455      6.59368         0.178305      1.023454      0.438283
H       0.60708      2.45132      1.32866        -0.211048     -0.378595     -0.495073
N       0.67265      2.29742      0.32517         0.269908     -0.294569      0.274556
