  # total energy =   -19.25298207 
CRSYTAL
PRIMVEC
     6.7020160000000004    0.0000000000000000    0.0000000000000000
     0.0000000000000000    6.7020160000000004    0.0000000000000000
     0.0000000000000000    0.0000000000000000    6.7020160000000004
PRESSURE
0.81361 0.341443 1.09786 0.080325 -0.579704 0.339619
PRIMCOORD
4 1
H       6.58267      3.46429      5.35792        -0.260946     -0.199202     -0.468660
H       0.96924      4.56522      6.07110         0.840142      0.782786     -0.199230
H       6.39493      3.96569      0.25966        -1.516187      0.068149      2.092739
N       0.21113      3.94861      6.15773         0.937704     -0.650870     -1.424906
