  # total energy =   -19.40271650 
CRSYTAL
PRIMVEC
     6.7020160000000004    0.0000000000000000    0.0000000000000000
     0.0000000000000000    6.7020160000000004    0.0000000000000000
     0.0000000000000000    0.0000000000000000    6.7020160000000004
PRESSURE
0.542017 1.11207 0.836376 -0.612287 -0.421997 0.132949
PRIMCOORD
4 1
H       1.49885      0.70555      0.23350         0.736941      0.010252     -0.961866
H       0.19798      1.48551      0.68623        -0.482608      0.550176     -0.217725
H       0.73613      0.26195      1.45670        -0.885226     -2.290212      1.732074
N       1.04893      1.08035      1.04635         0.631211      1.728660     -0.552344
