  # total energy =   -19.50033142 
CRSYTAL
PRIMVEC
     6.7020160000000004    0.0000000000000000    0.0000000000000000
     0.0000000000000000    6.7020160000000004    0.0000000000000000
     0.0000000000000000    0.0000000000000000    6.7020160000000004
PRESSURE
0.074537 -0.331281 0.126769 -0.314861 -0.154864 0.025741
PRIMCOORD
4 1
H       0.16493      3.28098      6.21727         0.109132      0.052551     -0.113560
H       0.48441      1.69836      6.46476        -0.007414      0.647716      0.603139
H       0.12096      2.75400      1.02474        -0.258986     -0.346203      0.485997
N       0.63549      2.64660      0.16365         0.157000     -0.353289     -0.975995
