  # total energy =   -19.41663255 
CRSYTAL
PRIMVEC
     6.7020160000000004    0.0000000000000000    0.0000000000000000
     0.0000000000000000    6.7020160000000004    0.0000000000000000
     0.0000000000000000    0.0000000000000000    6.7020160000000004
PRESSURE
-0.399285 -0.446354 -1.00426 0.248128 0.225342 -0.025314
PRIMCOORD
4 1
H       6.53586      3.73980      5.16924         0.158016     -0.116906      1.063008
H       0.33306      5.15568      5.63316        -0.054471     -0.923864      1.043088
H       6.05897      4.27451      6.68557         0.850941     -0.037908     -0.800109
N       0.19570      4.18674      6.05149        -0.953552      1.078244     -1.306183
