  # total energy =   -19.14595414 
CRSYTAL
PRIMVEC
     6.7020160000000004    0.0000000000000000    0.0000000000000000
     0.0000000000000000    6.7020160000000004    0.0000000000000000
     0.0000000000000000    0.0000000000000000    6.7020160000000004
PRESSURE
0.49803 -0.344303 0.720701 -0.491761 0.084935 0.531291
PRIMCOORD
4 1
H       0.94263      2.86517      0.20206         0.873682     -0.124709     -1.364407
H       6.58009      1.77835      0.14335        -0.910989     -0.715566     -0.574967
H       0.56110      2.31683      1.40645         0.103411     -1.334234      0.825334
N       0.81698      1.87991      0.49600        -0.066886      2.174305      1.115484
