  # total energy =   -19.30231884 
CRSYTAL
PRIMVEC
     6.7020160000000004    0.0000000000000000    0.0000000000000000
     0.0000000000000000    6.7020160000000004    0.0000000000000000
     0.0000000000000000    0.0000000000000000    6.7020160000000004
PRESSURE
-0.246856 -0.176341 -0.300895 -0.100246 0.181553 -0.140521
PRIMCOORD
4 1
H       6.57370      3.45565      5.35077         0.017366      0.200983     -0.316236
H       0.89863      4.73495      6.05986        -0.384569     -0.362319     -0.456813
H       6.33043      4.03128      0.27586         0.391328     -0.069969     -0.974738
N       0.20360      3.99747      6.12340        -0.023312      0.231518      1.746946
