  # total energy =   -19.27896399 
CRSYTAL
PRIMVEC
     6.7020160000000004    0.0000000000000000    0.0000000000000000
     0.0000000000000000    6.7020160000000004    0.0000000000000000
     0.0000000000000000    0.0000000000000000    6.7020160000000004
PRESSURE
0.668751 1.17437 0.170933 -0.121505 -0.18725 -0.556245
PRIMCOORD
4 1
H       0.34193      4.20959      5.10677         1.269823     -1.951701     -0.029354
H       6.25249      5.34220      4.92662        -0.892648      1.534764     -0.087040
H       5.95011      4.49204      6.22609        -0.552939     -0.410282      0.496045
N       0.00655      4.91553      5.71995         0.175642      0.827633     -0.379795
