  # total energy =   -19.49491908 
CRSYTAL
PRIMVEC
     6.7020160000000004    0.0000000000000000    0.0000000000000000
     0.0000000000000000    6.7020160000000004    0.0000000000000000
     0.0000000000000000    0.0000000000000000    6.7020160000000004
PRESSURE
-0.038753 0.189656 0.200177 0.203434 0.109949 -0.12843
PRIMCOORD
4 1
H       0.07815      3.74107      5.21447        -0.022503     -0.355425     -0.663357
H       0.13973      5.37399      5.50474        -0.258636      0.172839     -0.132381
H       6.01414      4.32146      6.53510         0.145536      0.326779     -0.243971
N       0.11731      4.45253      5.91720         0.135831     -0.144056      1.039350
