  # total energy =   -19.44906312 
CRSYTAL
PRIMVEC
     6.7020160000000004    0.0000000000000000    0.0000000000000000
     0.0000000000000000    6.7020160000000004    0.0000000000000000
     0.0000000000000000    0.0000000000000000    6.7020160000000004
PRESSURE
-0.464182 -0.382604 -0.743608 0.117623 0.6173 -0.168566
PRIMCOORD
4 1
H       6.57203      3.64218      5.23311        -0.240637      0.084285      0.231574
H       0.51125      5.08442      5.75526        -0.541658     -0.732228      0.451067
H       6.13206      4.20596      0.09786         1.077764      0.086577     -1.440979
N       0.19197      4.14236      6.06254        -0.295504      0.561475      0.759213
