  # total energy =   -19.51896163 
CRSYTAL
PRIMVEC
     6.7020160000000004    0.0000000000000000    0.0000000000000000
     0.0000000000000000    6.7020160000000004    0.0000000000000000
     0.0000000000000000    0.0000000000000000    6.7020160000000004
PRESSURE
-0.075139 -0.162705 -0.320758 0.115787 0.044627 -0.061232
PRIMCOORD
4 1
H       1.58478      1.01677      0.14716        -0.043827     -0.003789      0.372125
H       0.06255      1.43481      0.47190         0.098824      0.066202      0.205989
H       0.84984      0.46367      1.52558         0.161711      0.413400     -0.363099
N       0.97473      1.30163      0.92799        -0.216697     -0.475915     -0.214961
