  # total energy =   -19.49252245 
CRSYTAL
PRIMVEC
     6.7020160000000004    0.0000000000000000    0.0000000000000000
     0.0000000000000000    6.7020160000000004    0.0000000000000000
     0.0000000000000000    0.0000000000000000    6.7020160000000004
PRESSURE
-0.444215 -0.425142 0.03292 -0.010081 -0.16263 -0.176707
PRIMCOORD
4 1
H       0.92413      2.93684      0.00511        -0.024364     -0.680286      0.026632
H       6.58428      1.65037      0.05259         0.925766      0.330732      0.282752
H       0.52479      2.28424      1.40305         0.057999     -0.202063      0.205312
N       0.78787      2.00575      0.45344        -0.959673      0.551016     -0.514146
