  # total energy =   -19.28500129 
CRSYTAL
PRIMVEC
     6.7020160000000004    0.0000000000000000    0.0000000000000000
     0.0000000000000000    6.7020160000000004    0.0000000000000000
     0.0000000000000000    0.0000000000000000    6.7020160000000004
PRESSURE
0.461633 -0.361189 0.853898 -0.434954 -0.464544 0.399923
PRIMCOORD
4 1
H       0.41673      3.87530      5.32836        -0.278343      0.984949     -0.536862
H       6.47379      5.56964      5.33292         0.179134      0.020072     -1.067270
H       6.04993      4.45642      6.41281        -1.415980     -0.566631      1.357775
N       0.03626      4.71380      5.77403         1.515829     -0.439651      0.246195
