  # total energy =   -19.44788226 
CRSYTAL
PRIMVEC
     6.7020160000000004    0.0000000000000000    0.0000000000000000
     0.0000000000000000    6.7020160000000004    0.0000000000000000
     0.0000000000000000    0.0000000000000000    6.7020160000000004
PRESSURE
-0.108791 0.314837 -0.913206 -0.245857 0.241808 -0.037616
PRIMCOORD
4 1
H       6.68042      3.27334      5.97094        -0.033423      0.352714      0.537620
H       0.71933      1.96528      6.39898         0.073845     -0.494469      0.659693
H       0.00564      2.93909      0.92825         0.507345     -0.404006     -1.196050
N       0.55962      2.90891      0.03686        -0.548044      0.546923     -0.000662
