  # total energy =   -19.33655328 
CRSYTAL
PRIMVEC
     6.7020160000000004    0.0000000000000000    0.0000000000000000
     0.0000000000000000    6.7020160000000004    0.0000000000000000
     0.0000000000000000    0.0000000000000000    6.7020160000000004
PRESSURE
-0.61614 0.043488 -0.421293 -0.12123 -0.076709 -0.148575
PRIMCOORD
4 1
H       6.43446      3.56702      5.43189         0.492780      0.365466      0.334385
H       1.23063      4.06273      6.26480        -0.744471     -0.030583     -0.281661
H       6.45045      3.84576      0.43833         0.306835      0.096336     -0.579235
N       0.27952      3.69227      6.28149        -0.054692     -0.432472      0.526852
