  # total energy =   -19.47972629 
CRSYTAL
PRIMVEC
     6.7020160000000004    0.0000000000000000    0.0000000000000000
     0.0000000000000000    6.7020160000000004    0.0000000000000000
     0.0000000000000000    0.0000000000000000    6.7020160000000004
PRESSURE
0.470408 0.246749 -0.097733 0.121474 0.259923 0.152046
PRIMCOORD
4 1
H       1.28219      2.54279      0.11004         0.244518      0.475578      0.295525
H       6.60552      1.70601      0.19502        -0.862339     -0.111031     -0.362168
H       0.72741      1.87187      1.58370         0.270837      0.403558     -0.170535
N       0.82444      1.77406      0.57416         0.345221     -0.766913      0.238813
