  # total energy =   -19.31858222 
CRSYTAL
PRIMVEC
     6.7020160000000004    0.0000000000000000    0.0000000000000000
     0.0000000000000000    6.7020160000000004    0.0000000000000000
     0.0000000000000000    0.0000000000000000    6.7020160000000004
PRESSURE
-0.240929 -1.32228 -0.225849 -0.101518 0.228794 0.457044
PRIMCOORD
4 1
H       0.43393      3.84912      5.28701        -0.821046      1.561395      0.305424
H       6.54716      5.58586      5.32769         0.246992     -1.294847     -0.045681
H       6.04110      4.44105      6.49290         0.201923      0.001943     -0.451502
N       0.03996      4.68074      5.79011         0.372369     -0.267897      0.191558
