  # total energy =   -19.48011397 
CRSYTAL
PRIMVEC
     6.7020160000000004    0.0000000000000000    0.0000000000000000
     0.0000000000000000    6.7020160000000004    0.0000000000000000
     0.0000000000000000    0.0000000000000000    6.7020160000000004
PRESSURE
0.278922 0.48276 0.626688 0.105544 -0.190227 -0.053784
PRIMCOORD
4 1
H       0.05179      3.73517      5.22667         0.066906     -0.494132     -0.983317
H       0.13268      5.36052      5.52769        -0.137674      0.646398     -0.477592
H       6.02257      4.32514      6.51045        -0.609784      0.183564      0.509639
N       0.12184      4.44361      5.92178         0.680543     -0.336154      0.950997
