  # total energy =   -19.43291886 
CRSYTAL
PRIMVEC
     6.7020160000000004    0.0000000000000000    0.0000000000000000
     0.0000000000000000    6.7020160000000004    0.0000000000000000
     0.0000000000000000    0.0000000000000000    6.7020160000000004
PRESSURE
-0.435612 -0.424105 -0.647349 0.266636 0.567762 -0.229395
PRIMCOORD
4 1
H       0.12520      3.74812      5.18544        -0.219355      0.167873      0.191996
H       0.14886      5.39914      5.46261        -0.463388     -0.632154      0.477038
H       6.00232      4.31927      6.57474         1.060531      0.509131     -1.307991
N       0.10917      4.46854      5.90983        -0.376900     -0.044409      0.638700
