  # total energy =   -19.22525130 
CRSYTAL
PRIMVEC
     6.7020160000000004    0.0000000000000000    0.0000000000000000
     0.0000000000000000    6.7020160000000004    0.0000000000000000
     0.0000000000000000    0.0000000000000000    6.7020160000000004
PRESSURE
-1.04921 -0.272942 -1.03281 0.580386 -0.167138 0.229904
PRIMCOORD
4 1
H       1.74913      1.50492      0.22512        -1.037234     -0.083815      0.213318
H       6.66028      1.62431      0.42270         1.063905     -0.402701      0.272759
H       1.02382      0.89211      1.70026        -0.563468      0.992691     -1.906027
N       0.89863      1.43956      0.79837         0.537467     -0.506290      1.420609
