  # total energy =   -19.35338121 
CRSYTAL
PRIMVEC
     6.7020160000000004    0.0000000000000000    0.0000000000000000
     0.0000000000000000    6.7020160000000004    0.0000000000000000
     0.0000000000000000    0.0000000000000000    6.7020160000000004
PRESSURE
0.910668 0.152537 0.971039 0.64772 -0.297785 -0.049281
PRIMCOORD
4 1
H       6.56599      3.92369      5.58729        -0.383067     -0.604198     -0.238879
H       1.20703      3.91163      6.26741         1.268336      0.079431      0.370545
H       6.59682      3.95152      0.40468        -0.989175      1.030458      2.339021
N       0.32002      3.45616      6.38607         0.104071     -0.506086     -2.470691
