  # total energy =   -19.17236189 
CRSYTAL
PRIMVEC
     6.7020160000000004    0.0000000000000000    0.0000000000000000
     0.0000000000000000    6.7020160000000004    0.0000000000000000
     0.0000000000000000    0.0000000000000000    6.7020160000000004
PRESSURE
-0.845656 -0.732216 -1.16624 -0.322839 0.535624 -0.5216
PRIMCOORD
4 1
H       6.56638      3.45150      5.33265         0.270545      0.746074      0.244380
H       0.86752      4.82248      6.04189        -1.113708     -1.230890     -0.475655
H       6.28683      4.06295      0.29147         1.293814     -0.126934     -2.293225
N       0.20064      4.02145      6.10779        -0.450306      0.611932      2.524147
