  # total energy =   -19.48363617 
CRSYTAL
PRIMVEC
     6.7020160000000004    0.0000000000000000    0.0000000000000000
     0.0000000000000000    6.7020160000000004    0.0000000000000000
     0.0000000000000000    0.0000000000000000    6.7020160000000004
PRESSURE
0.115567 -0.257642 -0.246067 -0.345948 -0.184613 0.307868
PRIMCOORD
4 1
H       0.37385      4.06581      5.15118        -0.254476      0.778994      0.807010
H       6.24265      5.44150      5.00949         0.277120     -0.013459      0.396673
H       5.95167      4.48391      6.25348        -0.559114     -0.388167      0.571173
N       0.01776      4.87214      5.73388         0.536236     -0.376796     -1.774955
