  # total energy =   -19.44938157 
CRSYTAL
PRIMVEC
     6.7020160000000004    0.0000000000000000    0.0000000000000000
     0.0000000000000000    6.7020160000000004    0.0000000000000000
     0.0000000000000000    0.0000000000000000    6.7020160000000004
PRESSURE
-0.5565 -0.291224 -0.622549 0.209783 0.009655 0.07875
PRIMCOORD
4 1
H       1.13908      2.70251      0.10367         0.085005     -0.643356      0.643170
H       6.54447      1.77207      0.16580         1.008251     -0.344838      0.333239
H       0.63377      2.02968      1.55194         0.439212     -0.023961     -0.750706
N       0.82975      1.80494      0.54807        -1.531685      1.013106     -0.226735
