  # total energy =   -19.26922457 
CRSYTAL
PRIMVEC
     6.7020160000000004    0.0000000000000000    0.0000000000000000
     0.0000000000000000    6.7020160000000004    0.0000000000000000
     0.0000000000000000    0.0000000000000000    6.7020160000000004
PRESSURE
-0.386018 -0.79254 -1.53816 0.089018 0.799149 -0.137995
PRIMCOORD
4 1
H       0.23005      3.78222      5.13421        -0.715708      0.782532      1.557743
H       0.14555      5.42526      5.38629        -0.692671     -0.915457      1.122583
H       6.02919      4.34063      6.60168         0.863302      0.419510     -1.617103
N       0.08726      4.50929      5.89233         0.545103     -0.286191     -1.062525
