  # total energy =   -19.19085847 
CRSYTAL
PRIMVEC
     6.7020160000000004    0.0000000000000000    0.0000000000000000
     0.0000000000000000    6.7020160000000004    0.0000000000000000
     0.0000000000000000    0.0000000000000000    6.7020160000000004
PRESSURE
-0.984268 -0.214401 -1.42621 -0.066054 0.70828 -0.369013
PRIMCOORD
4 1
H       6.56713      3.46040      5.33030         0.022881      0.359762      0.801504
H       1.08152      4.47464      6.06540        -1.257773     -0.582744      0.434893
H       6.34695      3.91585      0.37787         1.341458      0.125947     -2.157187
N       0.22321      3.90212      6.18179        -0.105928      0.097285      0.921757
