  # total energy =   -19.27500391 
CRSYTAL
PRIMVEC
     6.7020160000000004    0.0000000000000000    0.0000000000000000
     0.0000000000000000    6.7020160000000004    0.0000000000000000
     0.0000000000000000    0.0000000000000000    6.7020160000000004
PRESSURE
0.442768 0.200843 0.138234 -0.119174 0.296441 -0.226611
PRIMCOORD
4 1
H       6.68674      3.57276      5.74261        -0.543939      0.466019     -0.176649
H       1.31163      2.84310      6.35269         0.782274     -0.191155      0.656291
H       0.04245      3.42798      0.75550         0.306350      0.131645      0.304022
N       0.40500      3.18817      6.55961        -0.543998     -0.406815     -0.783372
