  # total energy =   -19.44836582 
CRSYTAL
PRIMVEC
     6.7020160000000004    0.0000000000000000    0.0000000000000000
     0.0000000000000000    6.7020160000000004    0.0000000000000000
     0.0000000000000000    0.0000000000000000    6.7020160000000004
PRESSURE
-0.341527 0.008886 -1.10088 0.158505 0.139924 0.070069
PRIMCOORD
4 1
H       1.20596      2.62630      0.09218         0.081674     -0.071200      0.677923
H       6.56290      1.74457      0.17542         0.617688     -0.191539      0.258458
H       0.66787      1.94887      1.59945         0.517646      0.183446     -1.585656
N       0.82895      1.78991      0.55976        -1.217056      0.081125      0.649631
