  # total energy =   -19.19287182 
CRSYTAL
PRIMVEC
     6.7020160000000004    0.0000000000000000    0.0000000000000000
     0.0000000000000000    6.7020160000000004    0.0000000000000000
     0.0000000000000000    0.0000000000000000    6.7020160000000004
PRESSURE
1.03099 0.261568 1.1947 -0.490048 0.246722 -0.050302
PRIMCOORD
4 1
H       1.62802      1.75551      0.15985         1.055408      0.029892     -0.126030
H       6.69444      1.59887      0.35784        -1.287062      0.086520     -0.521830
H       0.92346      1.14362      1.63748         0.657241     -0.976987      2.234919
N       0.88269      1.51260      0.75533        -0.426233      0.861808     -1.587830
