  # total energy =   -19.21608452 
CRSYTAL
PRIMVEC
     6.7020160000000004    0.0000000000000000    0.0000000000000000
     0.0000000000000000    6.7020160000000004    0.0000000000000000
     0.0000000000000000    0.0000000000000000    6.7020160000000004
PRESSURE
0.206802 0.19524 -0.285662 0.194826 -0.03172 -0.193532
PRIMCOORD
4 1
H       6.67606      3.53508      5.91306        -0.065127     -0.152868     -0.585849
H       1.13699      2.32547      6.57179         0.422059     -0.510975     -1.014102
H       0.13757      3.13019      0.89767        -0.082647      0.235126     -1.018145
N       0.46587      3.05072      6.62685        -0.274230      0.427270      2.618416
