  # total energy =   -19.43700732 
CRSYTAL
PRIMVEC
     6.7020160000000004    0.0000000000000000    0.0000000000000000
     0.0000000000000000    6.7020160000000004    0.0000000000000000
     0.0000000000000000    0.0000000000000000    6.7020160000000004
PRESSURE
0.507048 0.092065 0.683832 0.520823 -0.275935 -0.067525
PRIMCOORD
4 1
H       6.54122      3.89866      5.56756        -0.126711     -0.499358     -0.005166
H       1.22135      3.92235      6.27608         0.634998     -0.030892      0.288760
H       6.58231      3.94831      0.41593        -0.750205      0.770010      1.782459
N       0.31777      3.47212      6.37825         0.242759     -0.240267     -2.066267
