  # total energy =   -19.47156442 
CRSYTAL
PRIMVEC
     6.7020160000000004    0.0000000000000000    0.0000000000000000
     0.0000000000000000    6.7020160000000004    0.0000000000000000
     0.0000000000000000    0.0000000000000000    6.7020160000000004
PRESSURE
-0.442725 -0.564026 -0.768973 0.454165 0.123151 0.034956
PRIMCOORD
4 1
H       1.61358      1.04349      0.14473        -0.483473      0.042705      0.686349
H       0.04608      1.45757      0.46636         0.542252     -0.182675      0.358672
H       0.86602      0.46390      1.56145         0.162246      1.254644     -1.172368
N       0.96917      1.31095      0.91917        -0.220107     -1.114519      0.126825
