  # total energy =   -19.27442582 
CRSYTAL
PRIMVEC
     6.7020160000000004    0.0000000000000000    0.0000000000000000
     0.0000000000000000    6.7020160000000004    0.0000000000000000
     0.0000000000000000    0.0000000000000000    6.7020160000000004
PRESSURE
-0.232144 -0.405786 -0.598151 0.336805 -0.107813 0.333411
PRIMCOORD
4 1
H       6.67838      3.50130      5.91771         0.296555     -0.733303      0.284363
H       1.07753      2.18886      6.54866        -0.605518      0.550180     -0.681080
H       0.13588      3.07989      0.91897        -0.046726      0.155203     -0.999504
N       0.48427      3.01469      6.65412         0.354928      0.028339      1.396368
