  # total energy =   -19.34951588 
CRSYTAL
PRIMVEC
     6.7020160000000004    0.0000000000000000    0.0000000000000000
     0.0000000000000000    6.7020160000000004    0.0000000000000000
     0.0000000000000000    0.0000000000000000    6.7020160000000004
PRESSURE
-0.488635 -0.241003 0.338003 0.445508 0.085942 -0.100176
PRIMCOORD
4 1
H       0.38359      3.97240      5.31617         0.300549     -0.350188     -1.350168
H       6.29504      5.55131      5.19914         0.560312     -0.744515     -0.597288
H       5.94096      4.44506      6.33819         1.006570      0.485457     -0.475441
N       0.03416      4.80040      5.74136        -1.867595      0.608125      2.423238
