  # total energy =   -19.44378626 
CRSYTAL
PRIMVEC
     6.7020160000000004    0.0000000000000000    0.0000000000000000
     0.0000000000000000    6.7020160000000004    0.0000000000000000
     0.0000000000000000    0.0000000000000000    6.7020160000000004
PRESSURE
-0.368662 -0.374002 0.059697 0.227408 -0.058669 0.140523
PRIMCOORD
4 1
H       1.09932      2.74044      0.12141         0.228531     -0.769886      0.372514
H       6.54879      1.78385      0.16530         0.719402     -0.464383      0.143983
H       0.62031      2.07942      1.50744         0.264858     -0.072992      0.339038
N       0.82851      1.81512      0.54085        -1.212610      1.307621     -0.855532
