  # total energy =   -19.27849508 
CRSYTAL
PRIMVEC
     6.7020160000000004    0.0000000000000000    0.0000000000000000
     0.0000000000000000    6.7020160000000004    0.0000000000000000
     0.0000000000000000    0.0000000000000000    6.7020160000000004
PRESSURE
0.193562 -0.041524 -0.831886 -0.17892 0.222419 0.059411
PRIMCOORD
4 1
H       0.29143      3.83103      5.13765        -0.793059      0.294160      1.470865
H       0.12174      5.41703      5.35982        -0.654075      0.151140      0.789554
H       6.07952      4.37128      6.57185        -0.718939     -0.056082     -0.104968
N       0.07105      4.54047      5.87688         2.165435     -0.389448     -2.155206
