  # total energy =   -19.21910264 
CRSYTAL
PRIMVEC
     6.7020160000000004    0.0000000000000000    0.0000000000000000
     0.0000000000000000    6.7020160000000004    0.0000000000000000
     0.0000000000000000    0.0000000000000000    6.7020160000000004
PRESSURE
-0.539868 -1.26555 -0.365588 -0.117317 -0.126795 -0.285119
PRIMCOORD
4 1
H       1.46966      0.69100      0.17358         0.130081      1.011353      0.583388
H       0.10448      1.39969      0.58199         0.896142      0.313948      0.498948
H       0.70612      0.18217      1.41064         0.697987      2.017189      0.064206
N       1.04076      1.16289      1.02440        -1.723715     -3.342455     -1.146092
