  # total energy =   -19.46508009 
CRSYTAL
PRIMVEC
     6.7020160000000004    0.0000000000000000    0.0000000000000000
     0.0000000000000000    6.7020160000000004    0.0000000000000000
     0.0000000000000000    0.0000000000000000    6.7020160000000004
PRESSURE
-0.366505 -0.276549 -0.577489 0.113366 0.542948 -0.133641
PRIMCOORD
4 1
H       6.57412      3.63630      5.24077        -0.276684      0.027391      0.070998
H       0.52097      5.07451      5.76711        -0.481611     -0.555072      0.344654
H       6.14338      4.20149      0.09821         0.883812      0.093384     -1.249113
N       0.19147      4.13960      6.06335        -0.125420      0.434830      0.834532
