  # total energy =   -19.43247167 
CRSYTAL
PRIMVEC
     6.7020160000000004    0.0000000000000000    0.0000000000000000
     0.0000000000000000    6.7020160000000004    0.0000000000000000
     0.0000000000000000    0.0000000000000000    6.7020160000000004
PRESSURE
0.087265 0.02095 0.833694 0.282531 -0.28867 -0.269266
PRIMCOORD
4 1
H       6.63164      3.87227      5.71904        -0.099474     -0.186082     -0.417204
H       1.33966      3.58007      6.41550        -0.072277     -0.466157     -0.315423
H       0.09046      3.84132      0.54793        -0.781138      0.470504      1.581348
N       0.34464      3.29914      6.45784         0.953286      0.182331     -0.848659
