  # total energy =   -19.50397935 
CRSYTAL
PRIMVEC
     6.7020160000000004    0.0000000000000000    0.0000000000000000
     0.0000000000000000    6.7020160000000004    0.0000000000000000
     0.0000000000000000    0.0000000000000000    6.7020160000000004
PRESSURE
-0.624886 -0.130682 -0.451515 -0.050911 0.032023 -0.01754
PRIMCOORD
4 1
H       6.48750      3.83416      5.52744         0.393007     -0.161252      0.450215
H       1.25879      3.94330      6.30044        -0.800231     -0.276011      0.025822
H       6.53967      3.95320      0.46921         0.419285     -0.302056     -0.574336
N       0.31320      3.50685      6.35861        -0.012181      0.739311      0.098798
