  # total energy =   -19.22894276 
CRSYTAL
PRIMVEC
     6.7020160000000004    0.0000000000000000    0.0000000000000000
     0.0000000000000000    6.7020160000000004    0.0000000000000000
     0.0000000000000000    0.0000000000000000    6.7020160000000004
PRESSURE
0.539944 0.21694 0.820043 -0.307054 -0.111502 0.155432
PRIMCOORD
4 1
H       1.59743      2.13133      0.25506         0.201703      0.579165     -1.047617
H       6.64984      1.55620      0.24365        -1.108400      0.116697     -0.477504
H       1.00516      1.53847      1.62111        -0.609669     -0.303474      0.973563
N       0.82916      1.65443      0.65504         1.516750     -0.394122      0.551058
