  # total energy =   -19.36555906 
CRSYTAL
PRIMVEC
     6.7020160000000004    0.0000000000000000    0.0000000000000000
     0.0000000000000000    6.7020160000000004    0.0000000000000000
     0.0000000000000000    0.0000000000000000    6.7020160000000004
PRESSURE
0.350496 0.024059 0.216696 -0.350097 -0.159378 -0.33285
PRIMCOORD
4 1
H       1.48401      0.85713      0.15417         0.764933      0.276772     -0.117281
H       0.09827      1.35936      0.50447        -0.410012      0.854963      0.058667
H       0.76395      0.35498      1.41060         0.309245     -0.072031      0.788184
N       1.00559      1.25284      0.97229        -0.663501     -1.060073     -0.729432
