  # total energy =   -19.41352992 
CRSYTAL
PRIMVEC
     6.7020160000000004    0.0000000000000000    0.0000000000000000
     0.0000000000000000    6.7020160000000004    0.0000000000000000
     0.0000000000000000    0.0000000000000000    6.7020160000000004
PRESSURE
-0.3404 -0.801535 0.071626 -0.342482 -0.157157 -0.080963
PRIMCOORD
4 1
H       6.61725      3.68050      5.20756         0.619319      1.150638      0.258812
H       0.09013      5.35648      5.59223         0.312544     -0.710343     -0.464146
H       5.95675      4.35306      6.47188         0.544599     -0.083090      0.284214
N       0.15577      4.38577      5.95311        -1.477811     -0.357380     -0.079282
