  # total energy =   -19.43270965 
CRSYTAL
PRIMVEC
     6.7020160000000004    0.0000000000000000    0.0000000000000000
     0.0000000000000000    6.7020160000000004    0.0000000000000000
     0.0000000000000000    0.0000000000000000    6.7020160000000004
PRESSURE
-0.173693 -0.236211 -0.725806 0.261107 0.004577 0.049424
PRIMCOORD
4 1
H       6.53133      3.75482      5.17021         0.171440     -0.302462      0.891185
H       0.30393      5.15467      5.62522         0.140341     -0.600880      0.944462
H       6.06084      4.28446      6.65572         0.360374     -0.050670     -0.285210
N       0.19554      4.19393      6.04940        -0.671415      0.954418     -1.550204
