  # total energy =   -19.42467064 
CRSYTAL
PRIMVEC
     6.7020160000000004    0.0000000000000000    0.0000000000000000
     0.0000000000000000    6.7020160000000004    0.0000000000000000
     0.0000000000000000    0.0000000000000000    6.7020160000000004
PRESSURE
-0.630028 -0.600053 -0.821751 0.605151 0.111616 0.207034
PRIMCOORD
4 1
H       1.66882      1.12346      0.17167        -0.811112      0.026279      0.521921
H       0.02814      1.51155      0.46765         0.650743     -0.451182      0.232402
H       0.91860      0.53048      1.60198        -0.136931      1.365515     -1.513648
N       0.95249      1.33410      0.89438         0.297413     -0.940305      0.758718
