  # total energy =   -19.40532264 
CRSYTAL
PRIMVEC
     6.7020160000000004    0.0000000000000000    0.0000000000000000
     0.0000000000000000    6.7020160000000004    0.0000000000000000
     0.0000000000000000    0.0000000000000000    6.7020160000000004
PRESSURE
-0.227972 -0.378515 0.388226 0.110745 -0.0214 -0.246989
PRIMCOORD
4 1
H       6.64233      3.91219      5.71384        -0.177212     -0.508678     -0.298391
H       1.33739      3.64716      6.38065        -0.577822     -0.750349      0.024946
H       0.05693      3.89128      0.54014        -0.267460     -0.278586      0.650210
N       0.34117      3.30712      6.45107         1.022759      1.538092     -0.377029
