  # total energy =   -19.44545383 
CRSYTAL
PRIMVEC
     6.7020160000000004    0.0000000000000000    0.0000000000000000
     0.0000000000000000    6.7020160000000004    0.0000000000000000
     0.0000000000000000    0.0000000000000000    6.7020160000000004
PRESSURE
0.564967 0.608192 0.89386 -0.019517 -0.442101 0.00093
PRIMCOORD
4 1
H       0.02641      3.72683      5.23338         0.151372     -0.418429     -1.073123
H       0.12504      5.35079      5.54757        -0.030879      0.946022     -0.736417
H       6.02754      4.32973      6.48909        -1.300121      0.054048      1.156847
N       0.12653      4.43476      5.92660         1.179897     -0.582065      0.652877
