  # total energy =   -19.38586536 
CRSYTAL
PRIMVEC
     6.7020160000000004    0.0000000000000000    0.0000000000000000
     0.0000000000000000    6.7020160000000004    0.0000000000000000
     0.0000000000000000    0.0000000000000000    6.7020160000000004
PRESSURE
-0.718945 0.008424 -1.11477 -0.275383 -0.112283 0.16368
PRIMCOORD
4 1
H       6.60253      3.69824      5.69536         0.496427      0.193034      0.465852
H       1.40509      3.22436      6.46269        -1.033538      0.290535     -0.447096
H       0.10791      3.66187      0.73816         0.163389     -0.373651     -1.819283
N       0.36633      3.25675      6.49193         0.373786     -0.110198      1.799768
