  # total energy =   -19.31172966 
CRSYTAL
PRIMVEC
     6.7020160000000004    0.0000000000000000    0.0000000000000000
     0.0000000000000000    6.7020160000000004    0.0000000000000000
     0.0000000000000000    0.0000000000000000    6.7020160000000004
PRESSURE
0.097931 -0.135093 0.309459 0.214654 0.013685 -0.007192
PRIMCOORD
4 1
H       0.70838      3.24578      6.40096        -0.204417     -0.423661     -0.065846
H       0.45128      1.50373      6.60475        -0.195408     -0.112128     -0.446270
H       0.51574      2.53486      1.24667        -0.163969      0.122467      0.411932
N       0.64384      2.41228      0.26598         0.562666      0.413441      0.098826
