  # total energy =   -19.31603294 
CRSYTAL
PRIMVEC
     6.7020160000000004    0.0000000000000000    0.0000000000000000
     0.0000000000000000    6.7020160000000004    0.0000000000000000
     0.0000000000000000    0.0000000000000000    6.7020160000000004
PRESSURE
-0.381367 -0.494511 -0.88362 -0.004725 -0.19148 -0.532931
PRIMCOORD
4 1
H       0.93622      2.96006      6.49981        -0.325911     -0.098023      0.864113
H       0.05935      1.48324      6.63332         1.098257      1.345736      0.957061
H       0.56990      2.23837      1.40715        -0.039376      0.562808     -0.660751
N       0.73258      2.16004      0.40200        -0.733300     -1.810365     -1.158481
