  # total energy =   -19.21507605 
CRSYTAL
PRIMVEC
     6.7020160000000004    0.0000000000000000    0.0000000000000000
     0.0000000000000000    6.7020160000000004    0.0000000000000000
     0.0000000000000000    0.0000000000000000    6.7020160000000004
PRESSURE
-0.091723 -0.090442 -1.18614 0.42608 0.093299 -0.038252
PRIMCOORD
4 1
H       1.62191      1.86443      0.12978         0.190938     -0.205053      0.689549
H       6.65316      1.58916      0.30521         0.342161     -0.058890      0.296112
H       0.91452      1.20367      1.71592         0.440309      0.662988     -1.703573
N       0.87363      1.54900      0.73029        -0.972786     -0.399782      0.718446
