  # total energy =   -19.25719669 
CRSYTAL
PRIMVEC
     6.7020160000000004    0.0000000000000000    0.0000000000000000
     0.0000000000000000    6.7020160000000004    0.0000000000000000
     0.0000000000000000    0.0000000000000000    6.7020160000000004
PRESSURE
-0.685971 -0.668428 -0.438177 -0.740521 -0.153234 0.076484
PRIMCOORD
4 1
H       0.91517      2.92773      0.12450         0.331367     -0.571673     -0.888599
H       6.54289      1.69906      0.07655         1.292397      0.234917      0.479511
H       0.52723      2.35924      1.43358         0.341326     -1.547261     -0.978416
N       0.80471      1.94860      0.46698        -1.965807      1.884037      1.387603
