  # total energy =   -19.39065221 
CRSYTAL
PRIMVEC
     6.7020160000000004    0.0000000000000000    0.0000000000000000
     0.0000000000000000    6.7020160000000004    0.0000000000000000
     0.0000000000000000    0.0000000000000000    6.7020160000000004
PRESSURE
-0.847152 -1.01585 -0.205682 0.339903 0.22478 0.232968
PRIMCOORD
4 1
H       0.39090      3.97931      5.25797        -0.386731      0.948534     -0.282363
H       6.25684      5.53898      5.12545         0.854394     -1.228745      0.165249
H       5.91932      4.44779      6.32190         1.312760      0.592844     -0.749284
N       0.03084      4.82644      5.73825        -1.779707     -0.312875      0.865822
