  # total energy =   -19.46221798 
CRSYTAL
PRIMVEC
     6.7020160000000004    0.0000000000000000    0.0000000000000000
     0.0000000000000000    6.7020160000000004    0.0000000000000000
     0.0000000000000000    0.0000000000000000    6.7020160000000004
PRESSURE
-0.287076 -0.446385 0.191754 0.151359 -0.195332 0.059199
PRIMCOORD
4 1
H       0.06978      3.29531      6.20405         0.675551     -0.532923      0.161146
H       0.44795      1.71948      6.52305         0.311820      0.532507     -0.180822
H       0.02649      2.71240      0.96162         0.202280      0.138930      0.500189
N       0.63964      2.69077      0.14174        -1.189968     -0.138324     -0.480648
