  # total energy =   -19.24800665 
CRSYTAL
PRIMVEC
     6.7020160000000004    0.0000000000000000    0.0000000000000000
     0.0000000000000000    6.7020160000000004    0.0000000000000000
     0.0000000000000000    0.0000000000000000    6.7020160000000004
PRESSURE
0.598764 0.996985 0.757924 0.187806 -0.646135 0.363223
PRIMCOORD
4 1
H       6.51259      3.80798      5.19875         0.146947     -1.318610     -0.674267
H       0.15243      5.15649      5.61208         0.972697      1.460978     -0.119831
H       6.03673      4.34081      6.51099        -1.426726     -0.275646      1.714442
N       0.19454      4.24034      6.02983         0.306900      0.132309     -0.921435
