  # total energy =   -19.42553661 
CRSYTAL
PRIMVEC
     6.7020160000000004    0.0000000000000000    0.0000000000000000
     0.0000000000000000    6.7020160000000004    0.0000000000000000
     0.0000000000000000    0.0000000000000000    6.7020160000000004
PRESSURE
0.638899 0.185526 1.00195 0.119082 0.267796 0.094978
PRIMCOORD
4 1
H       1.34962      2.48786      0.13506         0.065017      0.362571      0.098635
H       6.62056      1.67160      0.20274        -1.291583      0.004280     -0.567505
H       0.78441      1.82147      1.56011         0.036121      0.400478      1.772822
N       0.82107      1.75997      0.58628         1.189941     -0.767872     -1.302394
