  # total energy =   -19.34827050 
CRSYTAL
PRIMVEC
     6.7020160000000004    0.0000000000000000    0.0000000000000000
     0.0000000000000000    6.7020160000000004    0.0000000000000000
     0.0000000000000000    0.0000000000000000    6.7020160000000004
PRESSURE
-0.189582 -0.576803 0.055796 -0.24058 -0.220315 -0.177083
PRIMCOORD
4 1
H       1.46946      0.68716      0.19631         0.395257      0.754893      0.001965
H       0.12883      1.41697      0.61019         0.465316      0.388721      0.252899
H       0.71611      0.20759      1.40862         0.300264      0.908225      0.558075
N       1.04373      1.14038      1.03137        -1.159953     -2.050317     -0.812473
