  # total energy =   -19.31882995 
CRSYTAL
PRIMVEC
     6.7020160000000004    0.0000000000000000    0.0000000000000000
     0.0000000000000000    6.7020160000000004    0.0000000000000000
     0.0000000000000000    0.0000000000000000    6.7020160000000004
PRESSURE
0.094313 0.353091 -0.186848 -0.031924 0.097473 0.018561
PRIMCOORD
4 1
H       0.63047      3.25527      6.35699        -0.215660      0.457563     -0.447134
H       0.49359      1.54203      6.58549        -0.228877     -0.337426     -0.416769
H       0.46665      2.57426      1.24384        -0.025997      0.086503     -0.741825
N       0.63560      2.45820      0.24304         0.470713     -0.206315      1.605750
