  # total energy =   -19.44195496 
CRSYTAL
PRIMVEC
     6.7020160000000004    0.0000000000000000    0.0000000000000000
     0.0000000000000000    6.7020160000000004    0.0000000000000000
     0.0000000000000000    0.0000000000000000    6.7020160000000004
PRESSURE
-0.563557 -0.189372 -0.956521 0.192752 0.061187 0.057785
PRIMCOORD
4 1
H       1.16571      2.67379      0.09574         0.042298     -0.462563      0.726019
H       6.54747      1.76224      0.16800         1.004937     -0.274097      0.374131
H       0.64511      1.99695      1.57717         0.508018      0.044497     -1.287392
N       0.82993      1.79870      0.55268        -1.554953      0.693165      0.186958
