  # total energy =   -19.23104899 
CRSYTAL
PRIMVEC
     6.7020160000000004    0.0000000000000000    0.0000000000000000
     0.0000000000000000    6.7020160000000004    0.0000000000000000
     0.0000000000000000    0.0000000000000000    6.7020160000000004
PRESSURE
0.149751 0.176414 0.103361 -0.244563 -0.332038 0.067367
PRIMCOORD
4 1
H       1.59524      2.16453      0.26011        -0.088476      0.457987     -0.998348
H       6.63659      1.55451      0.23262        -0.591481      0.216813     -0.215233
H       1.01178      1.56772      1.64110        -0.910850     -0.190615     -0.268825
N       0.82572      1.66497      0.64614         1.590659     -0.484820      1.480870
