  # total energy =   -19.42358068 
CRSYTAL
PRIMVEC
     6.7020160000000004    0.0000000000000000    0.0000000000000000
     0.0000000000000000    6.7020160000000004    0.0000000000000000
     0.0000000000000000    0.0000000000000000    6.7020160000000004
PRESSURE
0.679411 0.340439 0.878877 -0.211948 -0.590822 0.004587
PRIMCOORD
4 1
H       6.68671      3.70811      5.23212         0.311648      0.120126     -0.748747
H       0.11168      5.34558      5.57246         0.110104      0.793537     -0.872191
H       6.01922      4.33815      6.46732        -1.588266     -0.050743      1.506169
N       0.13570      4.41892      5.93545         1.166433     -0.862939      0.115609
