  # total energy =   -19.24221244 
CRSYTAL
PRIMVEC
     6.7020160000000004    0.0000000000000000    0.0000000000000000
     0.0000000000000000    6.7020160000000004    0.0000000000000000
     0.0000000000000000    0.0000000000000000    6.7020160000000004
PRESSURE
0.246498 0.15073 0.534747 0.154609 -0.219417 -0.169757
PRIMCOORD
4 1
H       6.67582      3.54170      5.90032        -0.127985      0.018316     -0.756007
H       1.16937      2.37589      6.55490         0.275848     -0.273203     -0.886354
H       0.13783      3.15824      0.85508        -0.515802      0.305335      0.453663
N       0.45733      3.06732      6.61998         0.366996     -0.050526      1.190377
