  # total energy =   -19.36936903 
CRSYTAL
PRIMVEC
     6.7020160000000004    0.0000000000000000    0.0000000000000000
     0.0000000000000000    6.7020160000000004    0.0000000000000000
     0.0000000000000000    0.0000000000000000    6.7020160000000004
PRESSURE
-0.086702 -0.361188 0.174819 -0.28461 -0.250953 -0.143284
PRIMCOORD
4 1
H       1.46989      0.68746      0.20195         0.471552      0.675721     -0.161447
H       0.13549      1.42162      0.61737         0.339320      0.419439      0.185673
H       0.71910      0.21544      1.40877         0.166987      0.537027      0.717444
N       1.04429      1.13476      1.03294        -0.976727     -1.630527     -0.741069
