  # total energy =   -19.23531557 
CRSYTAL
PRIMVEC
     6.7020160000000004    0.0000000000000000    0.0000000000000000
     0.0000000000000000    6.7020160000000004    0.0000000000000000
     0.0000000000000000    0.0000000000000000    6.7020160000000004
PRESSURE
-0.646795 -0.664007 -0.414537 -0.779013 -0.139673 0.122152
PRIMCOORD
4 1
H       0.91492      2.92462      0.13483         0.378405     -0.527974     -0.969141
H       6.54300      1.70522      0.08067         1.216070      0.174882      0.442711
H       0.52841      2.36307      1.43415         0.347186     -1.628421     -0.969932
N       0.80602      1.94303      0.46860        -1.942559      1.981384      1.496496
