  # total energy =   -19.24017950 
CRSYTAL
PRIMVEC
     6.7020160000000004    0.0000000000000000    0.0000000000000000
     0.0000000000000000    6.7020160000000004    0.0000000000000000
     0.0000000000000000    0.0000000000000000    6.7020160000000004
PRESSURE
0.680052 0.235457 1.16793 -0.430054 -0.618358 0.204869
PRIMCOORD
4 1
H       0.40471      3.89853      5.34478         0.143705      0.273364     -1.077815
H       6.44092      5.55935      5.32745         0.047075      0.603348     -1.489279
H       6.04398      4.45953      6.38412        -1.728278     -0.679571      1.715724
N       0.03536      4.72920      5.76654         1.538551     -0.198453      0.850972
