  # total energy =   -19.31718671 
CRSYTAL
PRIMVEC
     6.7020160000000004    0.0000000000000000    0.0000000000000000
     0.0000000000000000    6.7020160000000004    0.0000000000000000
     0.0000000000000000    0.0000000000000000    6.7020160000000004
PRESSURE
0.756669 1.07899 0.227193 -0.251479 -0.264271 -0.386093
PRIMCOORD
4 1
H       0.34361      4.18861      5.11271         1.052284     -1.575533      0.110666
H       6.25396      5.35357      4.94220        -0.790924      1.440567     -0.145763
H       5.95731      4.49488      6.22534        -0.935116     -0.613690      0.789552
N       0.00820      4.90730      5.72308         0.673144      0.748249     -0.754692
