  # total energy =   -19.30948552 
CRSYTAL
PRIMVEC
     6.7020160000000004    0.0000000000000000    0.0000000000000000
     0.0000000000000000    6.7020160000000004    0.0000000000000000
     0.0000000000000000    0.0000000000000000    6.7020160000000004
PRESSURE
-0.95529 -1.2026 -0.294148 -0.333665 0.057061 -0.049696
PRIMCOORD
4 1
H       6.58307      3.67873      5.19342         0.757387      1.338691      0.632223
H       0.08113      5.35685      5.59568         0.436268     -1.348901     -0.194825
H       5.91924      4.36110      6.48350         1.643430     -0.179608     -0.291718
N       0.16718      4.36466      5.96398        -2.838342      0.189086     -0.145970
