  # total energy =   -19.50273832 
CRSYTAL
PRIMVEC
     6.7020160000000004    0.0000000000000000    0.0000000000000000
     0.0000000000000000    6.7020160000000004    0.0000000000000000
     0.0000000000000000    0.0000000000000000    6.7020160000000004
PRESSURE
-0.370541 -0.375408 0.127061 0.06763 -0.14836 -0.168934
PRIMCOORD
4 1
H       0.92511      2.93546      6.69571        -0.042147     -0.645685      0.105978
H       6.59165      1.64721      0.05174         0.790024      0.279900      0.211310
H       0.52509      2.27555      1.39940         0.019844     -0.060627      0.402319
N       0.78605      2.01107      0.45225        -0.767969      0.425768     -0.719206
