  # total energy =   -19.17677369 
CRSYTAL
PRIMVEC
     6.7020160000000004    0.0000000000000000    0.0000000000000000
     0.0000000000000000    6.7020160000000004    0.0000000000000000
     0.0000000000000000    0.0000000000000000    6.7020160000000004
PRESSURE
-1.06246 -0.052006 -1.06432 -0.143504 -0.637771 -0.381643
PRIMCOORD
4 1
H       1.57441      2.27668      0.24238        -1.113877     -0.219872     -0.456574
H       6.59157      1.56127      0.19962         1.027262      0.575128      0.576572
H       0.99298      1.65106      1.66922        -1.137887     -0.102352     -1.836835
N       0.81935      1.69589      0.62369         1.223472     -0.252577      1.716205
