  # total energy =   -19.43911331 
CRSYTAL
PRIMVEC
     6.7020160000000004    0.0000000000000000    0.0000000000000000
     0.0000000000000000    6.7020160000000004    0.0000000000000000
     0.0000000000000000    0.0000000000000000    6.7020160000000004
PRESSURE
0.201574 0.256525 -0.243845 -0.35605 0.256402 -0.088921
PRIMCOORD
4 1
H       0.00619      3.31499      5.95906        -0.632164      0.498636     -0.181676
H       0.83013      2.01953      6.40464        -0.090049     -0.332581      0.627201
H       0.05776      2.99516      0.91675        -0.032233     -0.437883     -0.424297
N       0.53563      2.93587      0.01808         0.753760      0.270719     -0.021555
