  # total energy =   -19.21601290 
CRSYTAL
PRIMVEC
     6.7020160000000004    0.0000000000000000    0.0000000000000000
     0.0000000000000000    6.7020160000000004    0.0000000000000000
     0.0000000000000000    0.0000000000000000    6.7020160000000004
PRESSURE
-0.486823 -1.09373 -0.30499 -0.140149 0.449577 -0.118392
PRIMCOORD
4 1
H       6.65730      3.97203      5.69811        -0.360228     -1.011994     -0.078191
H       1.31843      3.75180      6.31898        -0.869011     -1.121271      0.581299
H       6.69401      3.97252      0.53595         0.593609     -1.431237     -0.709986
N       0.33639      3.32493      6.43814         0.635519      3.563866      0.206709
