  # total energy =   -19.27147859 
CRSYTAL
PRIMVEC
     6.7020160000000004    0.0000000000000000    0.0000000000000000
     0.0000000000000000    6.7020160000000004    0.0000000000000000
     0.0000000000000000    0.0000000000000000    6.7020160000000004
PRESSURE
0.416622 0.189185 -0.044911 -0.157853 0.353696 -0.212635
PRIMCOORD
4 1
H       6.68761      3.57096      5.74379        -0.524498      0.447001     -0.130464
H       1.30847      2.83051      6.35193         0.797887     -0.212642      0.664231
H       0.03889      3.42343      0.76416         0.445596      0.027866     -0.033859
N       0.40658      3.18529      6.56121        -0.718130     -0.262311     -0.499637
