  # total energy =   -19.40469666 
CRSYTAL
PRIMVEC
     6.7020160000000004    0.0000000000000000    0.0000000000000000
     0.0000000000000000    6.7020160000000004    0.0000000000000000
     0.0000000000000000    0.0000000000000000    6.7020160000000004
PRESSURE
-0.794303 0.075971 -0.696063 -0.086583 -0.040603 0.16884
PRIMCOORD
4 1
H       6.61649      3.66784      5.69865         0.361285      0.186582      0.449322
H       1.40778      3.14388      6.43857        -1.241795      0.394150     -0.142186
H       0.09868      3.60752      0.73301         0.142429      0.014991     -1.012403
N       0.37212      3.24552      6.50601         0.738469     -0.597265      0.704787
