  # total energy =   -19.36334049 
CRSYTAL
PRIMVEC
     6.7020160000000004    0.0000000000000000    0.0000000000000000
     0.0000000000000000    6.7020160000000004    0.0000000000000000
     0.0000000000000000    0.0000000000000000    6.7020160000000004
PRESSURE
0.376867 0.022031 0.546254 -0.172415 -0.423866 0.014826
PRIMCOORD
4 1
H       6.57449      3.52282      5.31287         0.006623      0.385710     -0.315342
H       0.68276      4.95013      5.94395         0.081377      0.283526     -0.644528
H       6.27438      4.13899      0.14079        -1.012640      0.007400      0.918629
N       0.18965      4.09125      6.07954         0.925139     -0.676682      0.041887
