  # total energy =   -19.46326938 
CRSYTAL
PRIMVEC
     6.7020160000000004    0.0000000000000000    0.0000000000000000
     0.0000000000000000    6.7020160000000004    0.0000000000000000
     0.0000000000000000    0.0000000000000000    6.7020160000000004
PRESSURE
0.403472 0.166637 0.364744 0.032576 -0.422269 -0.102008
PRIMCOORD
4 1
H       6.60761      3.78690      5.71439         0.172219      0.247786     -0.234249
H       1.35090      3.42772      6.47112         0.670183     -0.015204     -0.763712
H       0.12756      3.75843      0.62436        -0.775010      0.289080      0.608300
N       0.35383      3.28223      6.46986        -0.068127     -0.521370      0.389559
