  # total energy =   -19.45595140 
CRSYTAL
PRIMVEC
     6.7020160000000004    0.0000000000000000    0.0000000000000000
     0.0000000000000000    6.7020160000000004    0.0000000000000000
     0.0000000000000000    0.0000000000000000    6.7020160000000004
PRESSURE
0.465488 0.207278 -0.056033 -0.43754 -0.292823 0.171687
PRIMCOORD
4 1
H       0.36357      4.10174      5.13638         0.079771      0.177880      0.716342
H       6.24721      5.41199      4.98966        -0.060741      0.507040      0.194419
H       5.96037      4.49142      6.23942        -1.071466     -0.662672      0.928859
N       0.01456      4.88209      5.73157         1.051884     -0.021316     -1.839880
