  # total energy =   -19.30552386 
CRSYTAL
PRIMVEC
     6.7020160000000004    0.0000000000000000    0.0000000000000000
     0.0000000000000000    6.7020160000000004    0.0000000000000000
     0.0000000000000000    0.0000000000000000    6.7020160000000004
PRESSURE
0.071772 -0.187638 -0.375895 -0.340722 -0.052978 -0.04807
PRIMCOORD
4 1
H       0.86805      3.11176      6.50439        -0.141205      0.071629     -0.433143
H       0.31096      1.44740      6.59959        -0.066628      0.401849      0.184829
H       0.61306      2.43958      1.34181        -0.200770     -0.423827     -0.823138
N       0.67597      2.28497      0.33050         0.408206     -0.049423      1.071069
