  # total energy =   -19.23492301 
CRSYTAL
PRIMVEC
     6.7020160000000004    0.0000000000000000    0.0000000000000000
     0.0000000000000000    6.7020160000000004    0.0000000000000000
     0.0000000000000000    0.0000000000000000    6.7020160000000004
PRESSURE
-0.009579 -1.46587 0.266874 -0.101988 -0.122346 -0.386764
PRIMCOORD
4 1
H       0.81440      3.19644      6.45737        -0.376938     -1.218708      0.285640
H       0.35829      1.42378      6.58721         0.394967      1.844833      0.634133
H       0.58234      2.48049      1.28013        -0.278269     -0.089673      0.977546
N       0.66247      2.33665      0.30788         0.260648     -0.535842     -1.896188
