  # total energy =   -19.49701202 
CRSYTAL
PRIMVEC
     6.7020160000000004    0.0000000000000000    0.0000000000000000
     0.0000000000000000    6.7020160000000004    0.0000000000000000
     0.0000000000000000    0.0000000000000000    6.7020160000000004
PRESSURE
0.042876 -0.49804 0.233416 -0.231702 -0.258977 0.031378
PRIMCOORD
4 1
H       0.14119      3.28586      6.21408         0.268587     -0.149913     -0.011809
H       0.47536      1.69719      6.47495         0.084035      0.851128      0.516536
H       0.10177      2.74594      1.00528        -0.330751     -0.240704      0.758057
N       0.63652      2.65668      0.15936        -0.021838     -0.460351     -1.263692
