  # total energy =   -19.11586773 
CRSYTAL
PRIMVEC
     6.7020160000000004    0.0000000000000000    0.0000000000000000
     0.0000000000000000    6.7020160000000004    0.0000000000000000
     0.0000000000000000    0.0000000000000000    6.7020160000000004
PRESSURE
-0.038247 -1.20367 -0.331506 -0.111601 0.639292 0.07635
PRIMCOORD
4 1
H       6.65935      4.00422      5.67398        -0.687610     -1.164554     -0.171237
H       1.26192      3.83690      6.26660         0.019301     -0.988598      0.885608
H       6.63735      4.01501      0.50233         0.882956     -1.576971     -0.793401
N       0.33206      3.35822      6.42229        -0.215255      3.730587      0.079187
