  # total energy =   -19.19016518 
CRSYTAL
PRIMVEC
     6.7020160000000004    0.0000000000000000    0.0000000000000000
     0.0000000000000000    6.7020160000000004    0.0000000000000000
     0.0000000000000000    0.0000000000000000    6.7020160000000004
PRESSURE
0.73403 1.28256 0.589809 -0.30558 -0.551298 0.038669
PRIMCOORD
4 1
H       0.34879      3.89933      5.18414        -0.266057     -1.153795      0.195889
H       0.06993      5.41727      5.34641        -0.580599      1.836081     -0.176682
H       6.11688      4.40759      6.53671        -2.183752     -0.603639      1.670411
N       0.05496      4.58058      5.85181         3.028921     -0.077754     -1.689550
