  # total energy =   -19.45069502 
CRSYTAL
PRIMVEC
     6.7020160000000004    0.0000000000000000    0.0000000000000000
     0.0000000000000000    6.7020160000000004    0.0000000000000000
     0.0000000000000000    0.0000000000000000    6.7020160000000004
PRESSURE
0.059532 0.547507 -0.448653 -0.221533 0.209175 0.118738
PRIMCOORD
4 1
H       0.24585      3.27375      6.22048        -0.158317      0.408593     -0.098636
H       0.51076      1.71563      6.45645        -0.340052     -0.955658      0.250040
H       0.17988      2.76127      1.09654         0.156067     -0.599614     -0.856361
N       0.63272      2.61215      0.17650         0.340641      1.147348      0.704017
