  # total energy =   -19.19911591 
CRSYTAL
PRIMVEC
     6.7020160000000004    0.0000000000000000    0.0000000000000000
     0.0000000000000000    6.7020160000000004    0.0000000000000000
     0.0000000000000000    0.0000000000000000    6.7020160000000004
PRESSURE
-0.533627 -0.640403 -0.331123 -0.828762 -0.106631 0.215043
PRIMCOORD
4 1
H       0.91513      2.91750      0.15360         0.473933     -0.433588     -1.114535
H       6.54535      1.71777      0.08965         1.003078      0.038325      0.340585
H       0.53141      2.36771      1.43354         0.346937     -1.748310     -0.888346
N       0.80839      1.93222      0.47201        -1.824795      2.143131      1.662108
