  # total energy =   -19.33814995 
CRSYTAL
PRIMVEC
     6.7020160000000004    0.0000000000000000    0.0000000000000000
     0.0000000000000000    6.7020160000000004    0.0000000000000000
     0.0000000000000000    0.0000000000000000    6.7020160000000004
PRESSURE
-0.403546 -0.722664 0.031983 -0.025957 0.200619 -0.199369
PRIMCOORD
4 1
H       6.64965      3.94058      5.70775        -0.245180     -0.752563     -0.187151
H       1.33220      3.69539      6.35315        -0.814926     -0.945725      0.285673
H       0.02847      3.92932      0.53875         0.152052     -0.868639     -0.064783
N       0.33889      3.31406      6.44554         0.908521      2.566407     -0.033872
