  # total energy =   -19.32325524 
CRSYTAL
PRIMVEC
     6.7020160000000004    0.0000000000000000    0.0000000000000000
     0.0000000000000000    6.7020160000000004    0.0000000000000000
     0.0000000000000000    0.0000000000000000    6.7020160000000004
PRESSURE
-0.285356 0.058997 -0.101742 0.032412 0.026339 0.005525
PRIMCOORD
4 1
H       1.70923      1.59217      0.20234        -0.297575     -0.149443      0.107735
H       6.67279      1.61805      0.40307         0.292199     -0.153288      0.029619
H       0.98724      0.98632      1.66511        -0.014047     -0.089762     -0.128700
N       0.89329      1.46322      0.78471         0.019496      0.392847     -0.007931
