  # total energy =   -19.44297444 
CRSYTAL
PRIMVEC
     6.7020160000000004    0.0000000000000000    0.0000000000000000
     0.0000000000000000    6.7020160000000004    0.0000000000000000
     0.0000000000000000    0.0000000000000000    6.7020160000000004
PRESSURE
0.059056 0.597941 -0.490546 -0.185268 0.214737 0.131908
PRIMCOORD
4 1
H       0.25372      3.27450      6.22012        -0.150618      0.381234     -0.046581
H       0.51252      1.71576      6.45725        -0.362940     -1.085942      0.199872
H       0.18621      2.75986      1.10205         0.161182     -0.602321     -0.923546
N       0.63253      2.60876      0.17790         0.350722      1.307507      0.769514
