  # total energy =   -19.44702061 
CRSYTAL
PRIMVEC
     6.7020160000000004    0.0000000000000000    0.0000000000000000
     0.0000000000000000    6.7020160000000004    0.0000000000000000
     0.0000000000000000    0.0000000000000000    6.7020160000000004
PRESSURE
-0.489638 -0.431838 -0.588678 0.471148 0.075387 0.203067
PRIMCOORD
4 1
H       1.67629      1.14411      0.18395        -0.692697      0.012013      0.301155
H       0.02954      1.52190      0.47059         0.448607     -0.424964      0.105105
H       0.93170      0.55975      1.59934        -0.220599      1.012192     -1.200893
N       0.94831      1.33932      0.88843         0.464745     -0.598382      0.794833
