  # total energy =   -19.35123714 
CRSYTAL
PRIMVEC
     6.7020160000000004    0.0000000000000000    0.0000000000000000
     0.0000000000000000    6.7020160000000004    0.0000000000000000
     0.0000000000000000    0.0000000000000000    6.7020160000000004
PRESSURE
0.749753 0.905144 0.712633 -0.65934 -0.228792 -0.210124
PRIMCOORD
4 1
H       1.50071      0.91431      0.16095         1.047454     -0.041131     -0.582737
H       0.10334      1.37115      0.49663        -0.974261      0.846245     -0.225915
H       0.79524      0.42831      1.42021        -0.093108     -1.902580      1.685979
N       0.99476      1.26838      0.95804         0.019934      1.096615     -0.877456
