  # total energy =   -19.23350737 
CRSYTAL
PRIMVEC
     6.7020160000000004    0.0000000000000000    0.0000000000000000
     0.0000000000000000    6.7020160000000004    0.0000000000000000
     0.0000000000000000    0.0000000000000000    6.7020160000000004
PRESSURE
0.830474 -0.46829 0.41333 0.251484 0.272021 0.148638
PRIMCOORD
4 1
H       6.63247      3.98586      5.64285        -0.839950     -0.916694     -0.476538
H       1.20836      3.87742      6.25275         1.458933     -0.268000      0.699649
H       6.61783      3.99126      0.43981         0.130599     -0.365630      0.710060
N       0.32737      3.40143      6.40711        -0.749173      1.549820     -0.933032
