  # total energy =   -19.20397339 
CRSYTAL
PRIMVEC
     6.7020160000000004    0.0000000000000000    0.0000000000000000
     0.0000000000000000    6.7020160000000004    0.0000000000000000
     0.0000000000000000    0.0000000000000000    6.7020160000000004
PRESSURE
-0.87252 0.277404 0.089382 0.568051 0.306132 -0.158325
PRIMCOORD
4 1
H       6.68881      3.28252      6.19378         0.726574     -0.282607     -0.187062
H       0.42022      1.78189      6.59103         0.589281     -0.779473     -1.184741
H       6.61780      2.66652      0.91244         1.437718      0.898317     -0.268679
N       0.63948      2.74876      0.11023        -2.753984      0.163440      1.640646
