  # total energy =   -19.35132518 
CRSYTAL
PRIMVEC
     6.7020160000000004    0.0000000000000000    0.0000000000000000
     0.0000000000000000    6.7020160000000004    0.0000000000000000
     0.0000000000000000    0.0000000000000000    6.7020160000000004
PRESSURE
-0.756859 -0.772061 -1.39954 0.185371 0.689876 -0.211316
PRIMCOORD
4 1
H       6.55146      3.69441      5.18235         0.040813      0.228017      1.128130
H       0.41802      5.14335      5.67233        -0.517524     -1.386633      1.040059
H       6.06881      4.24428      0.05787         1.609897      0.019407     -1.763493
N       0.19514      4.16630      6.05660        -1.132429      1.138080     -0.404626
