  # total energy =   -19.45502267 
CRSYTAL
PRIMVEC
     6.7020160000000004    0.0000000000000000    0.0000000000000000
     0.0000000000000000    6.7020160000000004    0.0000000000000000
     0.0000000000000000    0.0000000000000000    6.7020160000000004
PRESSURE
0.08512 0.054566 -0.406764 -0.217097 -0.321344 0.003047
PRIMCOORD
4 1
H       6.60004      3.75459      5.70633         0.344696      0.269097      0.043651
H       1.36828      3.36099      6.47960         0.235523      0.077145     -0.761204
H       0.12550      3.73185      0.67689        -0.375448     -0.223072     -0.792588
N       0.35795      3.27418      6.47511        -0.205881     -0.122413      1.510248
