  # total energy =   -19.17831645 
CRSYTAL
PRIMVEC
     6.7020160000000004    0.0000000000000000    0.0000000000000000
     0.0000000000000000    6.7020160000000004    0.0000000000000000
     0.0000000000000000    0.0000000000000000    6.7020160000000004
PRESSURE
1.055 0.30161 1.37675 -0.576495 0.255317 -0.063725
PRIMCOORD
4 1
H       1.63175      1.74302      0.16364         1.054498      0.027074     -0.169316
H       6.69614      1.60009      0.36281        -1.334647      0.101034     -0.553644
H       0.92659      1.13553      1.63144         0.662340     -1.167958      2.606256
N       0.88357      1.50852      0.75803        -0.382947      1.040875     -1.883621
