  # total energy =   -19.27711937 
CRSYTAL
PRIMVEC
     6.7020160000000004    0.0000000000000000    0.0000000000000000
     0.0000000000000000    6.7020160000000004    0.0000000000000000
     0.0000000000000000    0.0000000000000000    6.7020160000000004
PRESSURE
-0.951695 -0.021498 0.010073 0.028029 -0.052562 0.361033
PRIMCOORD
4 1
H       6.51124      3.76621      5.19205         0.601987     -0.319423      0.007089
H       0.09180      5.24079      5.60506         0.892518     -0.161217      0.050717
H       5.93408      4.36869      6.49750         1.528827     -0.558856      0.092394
N       0.19369      4.28139      6.00735        -3.023345      1.039939     -0.150671
