  # total energy =   -19.26409360 
CRSYTAL
PRIMVEC
     6.7020160000000004    0.0000000000000000    0.0000000000000000
     0.0000000000000000    6.7020160000000004    0.0000000000000000
     0.0000000000000000    0.0000000000000000    6.7020160000000004
PRESSURE
0.731954 0.363328 1.0774 0.096888 -0.509161 0.332278
PRIMCOORD
4 1
H       6.58145      3.46322      5.36378        -0.251571     -0.272449     -0.788410
H       0.92654      4.63693      6.07073         0.768039      0.737961     -0.409063
H       6.38095      3.99650      0.24616        -1.353438      0.021766      1.726084
N       0.20681      3.97221      6.14195         0.837726     -0.488532     -0.528930
