  # total energy =   -19.19527910 
CRSYTAL
PRIMVEC
     6.7020160000000004    0.0000000000000000    0.0000000000000000
     0.0000000000000000    6.7020160000000004    0.0000000000000000
     0.0000000000000000    0.0000000000000000    6.7020160000000004
PRESSURE
1.18282 0.265067 1.44431 0.194904 -0.587828 0.315721
PRIMCOORD
4 1
H       6.51209      3.51065      5.40370        -0.417924     -0.159310     -0.578699
H       1.13464      4.19549      6.14912         1.331182      0.815647      0.150751
H       6.43576      3.83957      0.32899        -1.683387      0.390667      2.867993
N       0.25282      3.79330      6.24333         0.769733     -1.048338     -2.440144
