  # total energy =   -19.30584866 
CRSYTAL
PRIMVEC
     6.7020160000000004    0.0000000000000000    0.0000000000000000
     0.0000000000000000    6.7020160000000004    0.0000000000000000
     0.0000000000000000    0.0000000000000000    6.7020160000000004
PRESSURE
0.113036 0.100712 -0.350326 -0.308337 -0.025857 0.058197
PRIMCOORD
4 1
H       0.87408      3.09836      6.50928        -0.084327      0.300324     -0.538303
H       0.30513      1.45617      6.60362        -0.251715     -0.020876     -0.002550
H       0.61595      2.43159      1.34719        -0.199502     -0.424831     -0.908319
N       0.67798      2.27775      0.33379         0.535343      0.145590      1.448641
