  # total energy =   -19.46275045 
CRSYTAL
PRIMVEC
     6.7020160000000004    0.0000000000000000    0.0000000000000000
     0.0000000000000000    6.7020160000000004    0.0000000000000000
     0.0000000000000000    0.0000000000000000    6.7020160000000004
PRESSURE
-0.249139 0.062515 -0.402807 -0.279738 0.025874 0.074581
PRIMCOORD
4 1
H       6.44734      3.73690      5.50606         0.301983      0.333643     -0.041871
H       1.24228      3.95300      6.32952        -0.118735      0.197223     -0.455629
H       6.52219      3.92972      0.47695         0.352240     -0.293146     -0.928063
N       0.30611      3.55991      6.33356        -0.534018     -0.236218      1.426134
