  # total energy =   -19.31244714 
CRSYTAL
PRIMVEC
     6.7020160000000004    0.0000000000000000    0.0000000000000000
     0.0000000000000000    6.7020160000000004    0.0000000000000000
     0.0000000000000000    0.0000000000000000    6.7020160000000004
PRESSURE
-0.240951 -0.701357 -0.18783 0.056801 -0.238175 -0.502665
PRIMCOORD
4 1
H       0.93041      2.99976      6.49033        -0.392271     -0.490460      0.891776
H       0.11893      1.46396      6.61388         0.833855      1.336428      0.928356
H       0.59354      2.28002      1.36752        -0.291573      0.458138      0.662812
N       0.71748      2.19055      0.38837        -0.150314     -1.304154     -2.483890
