  # total energy =   -19.30543231 
CRSYTAL
PRIMVEC
     6.7020160000000004    0.0000000000000000    0.0000000000000000
     0.0000000000000000    6.7020160000000004    0.0000000000000000
     0.0000000000000000    0.0000000000000000    6.7020160000000004
PRESSURE
-0.597495 -0.061655 -0.517435 0.256075 -0.043588 0.074121
PRIMCOORD
4 1
H       1.72383      1.56537      0.20884        -0.593466     -0.148518      0.182347
H       6.66660      1.62087      0.40863         0.634188     -0.243749      0.148623
H       0.99954      0.95538      1.67965        -0.207205      0.345656     -0.909571
N       0.89490      1.45586      0.78880         0.166202      0.047236      0.579039
