  # total energy =   -19.30048892 
CRSYTAL
PRIMVEC
     6.7020160000000004    0.0000000000000000    0.0000000000000000
     0.0000000000000000    6.7020160000000004    0.0000000000000000
     0.0000000000000000    0.0000000000000000    6.7020160000000004
PRESSURE
0.03496 -0.503052 -0.350291 -0.346571 -0.076628 -0.154696
PRIMCOORD
4 1
H       0.86096      3.12689      6.49783        -0.205048     -0.203687     -0.294632
H       0.31728      1.43864      6.59557         0.103694      0.824220      0.360667
H       0.60932      2.44742      1.33372        -0.206443     -0.399675     -0.631344
N       0.67381      2.29302      0.32703         0.307573     -0.221141      0.565454
