  # total energy =   -19.39274136 
CRSYTAL
PRIMVEC
     6.7020160000000004    0.0000000000000000    0.0000000000000000
     0.0000000000000000    6.7020160000000004    0.0000000000000000
     0.0000000000000000    0.0000000000000000    6.7020160000000004
PRESSURE
-0.50664 -0.927568 -0.033156 -0.344634 -0.093647 -0.079709
PRIMCOORD
4 1
H       6.60849      3.67895      5.20380         0.656569      1.226228      0.368806
H       0.08766      5.35747      5.59337         0.341834     -0.899281     -0.393905
H       5.94687      4.35509      6.47464         0.856567     -0.101250      0.113724
N       0.15862      4.38075      5.95571        -1.856490     -0.226023     -0.089060
