  # total energy =   -19.22289947 
CRSYTAL
PRIMVEC
     6.7020160000000004    0.0000000000000000    0.0000000000000000
     0.0000000000000000    6.7020160000000004    0.0000000000000000
     0.0000000000000000    0.0000000000000000    6.7020160000000004
PRESSURE
-0.666902 -0.097576 -1.31983 0.438267 0.024236 -0.115896
PRIMCOORD
4 1
H       1.62912      1.94305      0.13731        -0.456706     -0.337737      0.896620
H       6.63062      1.57929      0.27429         0.967552      0.001360      0.566118
H       0.93011      1.27846      1.71159         0.204725      0.630961     -1.707049
N       0.86300      1.57750      0.71171        -0.714092     -0.294942      0.243839
