  # total energy =   -19.10757980 
CRSYTAL
PRIMVEC
     6.7020160000000004    0.0000000000000000    0.0000000000000000
     0.0000000000000000    6.7020160000000004    0.0000000000000000
     0.0000000000000000    0.0000000000000000    6.7020160000000004
PRESSURE
-0.276407 -1.28848 -0.43188 -0.15917 0.640162 0.012432
PRIMCOORD
4 1
H       6.66162      3.99976      5.68252        -0.576164     -1.179663     -0.087395
H       1.28366      3.81453      6.27976        -0.415540     -1.123533      0.845521
H       6.65168      4.00986      0.51875         0.898677     -1.691996     -0.958516
N       0.33344      3.34550      6.42753         0.092453      3.995044      0.200396
