  # total energy =   -19.16647318 
CRSYTAL
PRIMVEC
     6.7020160000000004    0.0000000000000000    0.0000000000000000
     0.0000000000000000    6.7020160000000004    0.0000000000000000
     0.0000000000000000    0.0000000000000000    6.7020160000000004
PRESSURE
0.640585 -0.287449 1.04694 -0.269785 0.066595 0.50533
PRIMCOORD
4 1
H       0.96085      2.84816      0.19808         0.879988     -0.202180     -1.211481
H       6.58442      1.78841      0.15420        -1.153403     -0.794978     -0.711596
H       0.57196      2.28228      1.40260        -0.010837     -0.944857      1.502980
N       0.81891      1.86711      0.50415         0.283034      1.941714      0.420736
