  # total energy =   -19.43370696 
CRSYTAL
PRIMVEC
     6.7020160000000004    0.0000000000000000    0.0000000000000000
     0.0000000000000000    6.7020160000000004    0.0000000000000000
     0.0000000000000000    0.0000000000000000    6.7020160000000004
PRESSURE
0.257194 0.041053 0.16784 -0.331688 0.083122 -0.019323
PRIMCOORD
4 1
H       0.00789      3.33544      5.95510        -0.612336      0.387034     -0.238448
H       0.86577      2.02974      6.41531        -0.260421      0.076389      0.603807
H       0.07745      3.00680      0.90143        -0.434936     -0.343290      0.374618
N       0.52820      2.94508      0.01220         1.307361     -0.121682     -0.740868
