  # total energy =   -19.47841853 
CRSYTAL
PRIMVEC
     6.7020160000000004    0.0000000000000000    0.0000000000000000
     0.0000000000000000    6.7020160000000004    0.0000000000000000
     0.0000000000000000    0.0000000000000000    6.7020160000000004
PRESSURE
-0.512316 -0.471185 -0.060008 -0.092085 -0.173528 -0.177529
PRIMCOORD
4 1
H       0.92310      2.93784      0.01690        -0.002862     -0.705703     -0.058291
H       6.57724      1.65384      0.05364         1.047429      0.370707      0.346685
H       0.52452      2.29307      1.40693         0.097828     -0.350444      0.007807
N       0.78970      2.00028      0.45464        -1.142734      0.685036     -0.295440
