  # total energy =   -19.24960970 
CRSYTAL
PRIMVEC
     6.7020160000000004    0.0000000000000000    0.0000000000000000
     0.0000000000000000    6.7020160000000004    0.0000000000000000
     0.0000000000000000    0.0000000000000000    6.7020160000000004
PRESSURE
-1.13522 -0.013471 -1.07747 -0.163843 0.388294 -0.21559
PRIMCOORD
4 1
H       6.44678      3.53816      5.41317         0.462582      0.363193      0.471657
H       1.23230      4.10472      6.22859        -1.241019     -0.226831     -0.047594
H       6.40932      3.84022      0.45526         1.208948     -0.006090     -1.810925
N       0.27253      3.72434      6.26691        -0.429970     -0.129759      1.387759
