  # total energy =   -19.35076576 
CRSYTAL
PRIMVEC
     6.7020160000000004    0.0000000000000000    0.0000000000000000
     0.0000000000000000    6.7020160000000004    0.0000000000000000
     0.0000000000000000    0.0000000000000000    6.7020160000000004
PRESSURE
-0.298312 0.20772 0.668378 0.236331 -0.099708 -0.011018
PRIMCOORD
4 1
H       6.64843      3.62236      5.71532        -0.085000      0.297402      0.106033
H       1.38030      3.01978      6.39552        -0.718608      0.364798      0.340211
H       0.08536      3.51934      0.70454        -0.402190      0.838684      1.606741
N       0.38333      3.22539      6.53037         1.205909     -1.501872     -2.052824
