  # total energy =   -19.17268905 
CRSYTAL
PRIMVEC
     6.7020160000000004    0.0000000000000000    0.0000000000000000
     0.0000000000000000    6.7020160000000004    0.0000000000000000
     0.0000000000000000    0.0000000000000000    6.7020160000000004
PRESSURE
0.382614 -0.909603 -0.034723 0.021419 0.523365 0.142535
PRIMCOORD
4 1
H       6.65016      4.00042      5.66046        -0.807025     -1.065239     -0.332957
H       1.23234      3.85977      6.25587         0.749792     -0.670731      0.839629
H       6.62485      4.00887      0.47303         0.651164     -1.142969     -0.245801
N       0.32998      3.37821      6.41502        -0.593182      2.879957     -0.260586
