  # total energy =   -19.24699462 
CRSYTAL
PRIMVEC
     6.7020160000000004    0.0000000000000000    0.0000000000000000
     0.0000000000000000    6.7020160000000004    0.0000000000000000
     0.0000000000000000    0.0000000000000000    6.7020160000000004
PRESSURE
0.199647 0.124979 -0.683051 -0.256137 0.524193 -0.109054
PRIMCOORD
4 1
H       6.68802      3.56650      5.74792        -0.372144      0.317870      0.124424
H       1.30084      2.78055      6.35296         0.609061     -0.188147      0.701179
H       0.02853      3.40546      0.79566         0.870928     -0.279269     -1.086836
N       0.41232      3.17412      6.56726        -1.107279      0.149230      0.260725
