  # total energy =   -19.31567819 
CRSYTAL
PRIMVEC
     6.7020160000000004    0.0000000000000000    0.0000000000000000
     0.0000000000000000    6.7020160000000004    0.0000000000000000
     0.0000000000000000    0.0000000000000000    6.7020160000000004
PRESSURE
0.223835 0.564999 0.066481 -0.045922 0.051397 0.27
PRIMCOORD
4 1
H       0.89367      3.06191      6.51311        -0.032550      0.483298     -0.463995
H       0.27549      1.47802      6.61372        -0.725211     -0.912014     -0.423706
H       0.62124      2.39520      1.34672        -0.237601     -0.225611     -0.286363
N       0.68598      2.25343      0.34765         0.995616      0.653554      1.173383
