  # total energy =   -19.24485058 
CRSYTAL
PRIMVEC
     6.7020160000000004    0.0000000000000000    0.0000000000000000
     0.0000000000000000    6.7020160000000004    0.0000000000000000
     0.0000000000000000    0.0000000000000000    6.7020160000000004
PRESSURE
0.842402 0.402863 1.22868 0.109032 -0.595766 0.375325
PRIMCOORD
4 1
H       6.58219      3.46395      5.36425        -0.273426     -0.300357     -0.799392
H       0.93152      4.62381      6.07145         0.891916      0.840781     -0.392436
H       6.38643      3.99150      0.24389        -1.573461      0.033612      2.079630
N       0.20736      3.96853      6.14464         0.955873     -0.575225     -0.888330
