  # total energy =   -19.20742520 
CRSYTAL
PRIMVEC
     6.7020160000000004    0.0000000000000000    0.0000000000000000
     0.0000000000000000    6.7020160000000004    0.0000000000000000
     0.0000000000000000    0.0000000000000000    6.7020160000000004
PRESSURE
0.008282 0.019814 -0.76353 0.283105 0.01093 -0.013815
PRIMCOORD
4 1
H       6.67549      3.52654      5.91650         0.121983     -0.446984     -0.191958
H       1.11272      2.27199      6.57265         0.100278     -0.257178     -0.979019
H       0.13586      3.10777      0.92295         0.118278      0.195760     -1.634112
N       0.47351      3.03580      6.63585        -0.340395      0.507669      2.805817
