  # total energy =   -19.31190711 
CRSYTAL
PRIMVEC
     6.7020160000000004    0.0000000000000000    0.0000000000000000
     0.0000000000000000    6.7020160000000004    0.0000000000000000
     0.0000000000000000    0.0000000000000000    6.7020160000000004
PRESSURE
-0.311845 -0.668602 -0.492587 0.029776 -0.236617 -0.544497
PRIMCOORD
4 1
H       0.93339      2.98461      6.49246        -0.382043     -0.383032      0.924295
H       0.09346      1.46911      6.61985         0.990809      1.411210      0.986453
H       0.58448      2.26256      1.38320        -0.205333      0.502109      0.127566
N       0.72354      2.17863      0.39403        -0.403643     -1.529760     -2.038350
