  # total energy =   -19.30047818 
CRSYTAL
PRIMVEC
     6.7020160000000004    0.0000000000000000    0.0000000000000000
     0.0000000000000000    6.7020160000000004    0.0000000000000000
     0.0000000000000000    0.0000000000000000    6.7020160000000004
PRESSURE
-0.547355 -0.86885 -1.42107 0.200128 0.857619 -0.225516
PRIMCOORD
4 1
H       0.18691      3.76233      5.14932        -0.529319      0.715171      1.182404
H       0.15157      5.42114      5.41344        -0.643984     -1.088770      1.005067
H       6.00802      4.32717      6.60270         1.287341      0.544682     -1.851371
N       0.09710      4.49121      5.90024        -0.114073     -0.169910     -0.335081
