  # total energy =   -19.33943343 
CRSYTAL
PRIMVEC
     6.7020160000000004    0.0000000000000000    0.0000000000000000
     0.0000000000000000    6.7020160000000004    0.0000000000000000
     0.0000000000000000    0.0000000000000000    6.7020160000000004
PRESSURE
0.105491 -0.417374 -0.114926 -0.015935 -0.004651 -0.059511
PRIMCOORD
4 1
H       0.59145      3.27343      6.32321        -0.231468     -0.153276      0.110882
H       0.50133      1.53920      6.55912        -0.102190      0.704361      0.117686
H       0.44540      2.59345      1.21916        -0.194432      0.144832     -0.081483
N       0.63354      2.47695      0.23784         0.528394     -0.696033     -0.146680
