  # total energy =   -19.30824028 
CRSYTAL
PRIMVEC
     6.7020160000000004    0.0000000000000000    0.0000000000000000
     0.0000000000000000    6.7020160000000004    0.0000000000000000
     0.0000000000000000    0.0000000000000000    6.7020160000000004
PRESSURE
1.07294 0.126551 1.0159 0.648549 -0.239178 -0.011483
PRIMCOORD
4 1
H       6.58264      3.93980      5.60077        -0.541380     -0.668885     -0.369721
H       1.20047      3.90416      6.26231         1.585108      0.109227      0.427994
H       6.60423      3.95692      0.40369        -0.938289      0.983113      2.350279
N       0.32166      3.44462      6.39113        -0.105475     -0.423536     -2.408908
