  # total energy =   -19.23103790 
CRSYTAL
PRIMVEC
     6.7020160000000004    0.0000000000000000    0.0000000000000000
     0.0000000000000000    6.7020160000000004    0.0000000000000000
     0.0000000000000000    0.0000000000000000    6.7020160000000004
PRESSURE
-0.681017 -0.869936 -0.978947 -0.417567 0.374196 -0.511029
PRIMCOORD
4 1
H       6.56460      3.47315      5.31346         0.338337      1.022871      0.430650
H       0.77805      4.92100      5.99573        -0.955479     -1.226993     -0.524037
H       6.26054      4.11008      0.23805         1.034308     -0.127740     -1.823926
N       0.19465      4.06201      6.08843        -0.416885      0.331283      1.917612
