  # total energy =   -19.29725726 
CRSYTAL
PRIMVEC
     6.7020160000000004    0.0000000000000000    0.0000000000000000
     0.0000000000000000    6.7020160000000004    0.0000000000000000
     0.0000000000000000    0.0000000000000000    6.7020160000000004
PRESSURE
0.721083 1.13817 0.209705 -0.187616 -0.228335 -0.473746
PRIMCOORD
4 1
H       0.34243      4.19948      5.10977         1.169956     -1.781172      0.031183
H       6.25349      5.34752      4.93456        -0.850750      1.499659     -0.128417
H       5.95399      4.49364      6.22552        -0.755854     -0.519068      0.651855
N       0.00738      4.91134      5.72155         0.436312      0.800654     -0.554828
