  # total energy =   -19.24247427 
CRSYTAL
PRIMVEC
     6.7020160000000004    0.0000000000000000    0.0000000000000000
     0.0000000000000000    6.7020160000000004    0.0000000000000000
     0.0000000000000000    0.0000000000000000    6.7020160000000004
PRESSURE
0.526154 1.39946 0.551722 -0.061532 -0.392573 -0.142557
PRIMCOORD
4 1
H       0.36815      3.91619      5.20949         0.059307     -1.659150     -0.407978
H       0.04018      5.43829      5.34052        -0.567759      1.711174     -0.267539
H       6.10595      4.41589      6.54099        -1.385690     -0.434138      0.911887
N       0.05097      4.59741      5.83944         1.893844      0.382465     -0.235511
