  # total energy =   -19.27257733 
CRSYTAL
PRIMVEC
     6.7020160000000004    0.0000000000000000    0.0000000000000000
     0.0000000000000000    6.7020160000000004    0.0000000000000000
     0.0000000000000000    0.0000000000000000    6.7020160000000004
PRESSURE
-0.405141 -0.22011 0.573037 0.129388 -0.268023 0.328207
PRIMCOORD
4 1
H       6.67154      3.56000      5.82030         0.277567     -0.217803      0.223328
H       1.26682      2.52351      6.45467        -0.988336      0.715943      0.112261
H       0.09344      3.26472      0.79906        -0.475955      0.197278      1.431072
N       0.43529      3.11552      6.60098         1.185596     -0.695078     -1.767126
