  # total energy =   -19.27615845 
CRSYTAL
PRIMVEC
     6.7020160000000004    0.0000000000000000    0.0000000000000000
     0.0000000000000000    6.7020160000000004    0.0000000000000000
     0.0000000000000000    0.0000000000000000    6.7020160000000004
PRESSURE
-0.544295 -0.016693 -0.722432 0.03727 0.455115 -0.154712
PRIMCOORD
4 1
H       6.55041      3.47777      5.35119        -0.139435      0.130193      0.434233
H       1.11494      4.36411      6.08641        -0.747888     -0.162939      0.488810
H       6.37319      3.87941      0.36940         0.747828      0.185127     -1.056599
N       0.23441      3.85935      6.20699         0.139911     -0.152498      0.135013
