  # total energy =   -19.26142903 
CRSYTAL
PRIMVEC
     6.7020160000000004    0.0000000000000000    0.0000000000000000
     0.0000000000000000    6.7020160000000004    0.0000000000000000
     0.0000000000000000    0.0000000000000000    6.7020160000000004
PRESSURE
-0.215063 -0.346736 -0.686134 0.340567 -0.081052 0.291561
PRIMCOORD
4 1
H       6.67747      3.50637      5.91728         0.289061     -0.714733      0.237274
H       1.08353      2.20112      6.55385        -0.515493      0.431658     -0.742010
H       0.13575      3.08383      0.92220         0.012914      0.160947     -1.199729
N       0.48263      3.01788      6.65105         0.212802      0.122199      1.704773
