  # total energy =   -19.38529009 
CRSYTAL
PRIMVEC
     6.7020160000000004    0.0000000000000000    0.0000000000000000
     0.0000000000000000    6.7020160000000004    0.0000000000000000
     0.0000000000000000    0.0000000000000000    6.7020160000000004
PRESSURE
-0.499463 0.174327 0.265898 0.165962 -0.067573 0.060012
PRIMCOORD
4 1
H       6.63863      3.63507      5.70956         0.061031      0.250225      0.231313
H       1.39151      3.05514      6.40779        -0.959826      0.405114      0.211894
H       0.08966      3.54383      0.71169        -0.210374      0.630788      0.820317
N       0.37980      3.23157      6.52337         1.109533     -1.287816     -1.263999
