  # total energy =   -19.31834215 
CRSYTAL
PRIMVEC
     6.7020160000000004    0.0000000000000000    0.0000000000000000
     0.0000000000000000    6.7020160000000004    0.0000000000000000
     0.0000000000000000    0.0000000000000000    6.7020160000000004
PRESSURE
-0.558122 -0.836442 -1.33274 0.219646 0.836593 -0.237277
PRIMCOORD
4 1
H       0.17629      3.75891      5.15463        -0.476539      0.654568      1.045386
H       0.15198      5.41866      5.42111        -0.621915     -1.067720      0.942283
H       6.00498      4.32487      6.60028         1.318455      0.555467     -1.828031
N       0.09933      4.48709      5.90198        -0.219884     -0.141233     -0.158602
