  # total energy =   -19.29620146 
CRSYTAL
PRIMVEC
     6.7020160000000004    0.0000000000000000    0.0000000000000000
     0.0000000000000000    6.7020160000000004    0.0000000000000000
     0.0000000000000000    0.0000000000000000    6.7020160000000004
PRESSURE
-0.753326 0.095551 0.062247 0.50414 0.180075 -0.052603
PRIMCOORD
4 1
H       0.00747      3.28937      6.19675         0.788840     -0.439428     -0.016650
H       0.42589      1.76446      6.57530         0.494818     -0.484128     -0.980270
H       6.64566      2.67705      0.92787         1.177947      0.685093     -0.170862
N       0.64052      2.73088      0.11953        -2.461524      0.238783      1.168233
