  # total energy =   -19.48856813 
CRSYTAL
PRIMVEC
     6.7020160000000004    0.0000000000000000    0.0000000000000000
     0.0000000000000000    6.7020160000000004    0.0000000000000000
     0.0000000000000000    0.0000000000000000    6.7020160000000004
PRESSURE
-0.070469 -0.573552 0.268603 -0.064907 -0.301413 0.050928
PRIMCOORD
4 1
H       0.10687      3.29192      6.20909         0.488674     -0.389291      0.109777
H       0.46212      1.70317      6.49535         0.201249      0.855695      0.245724
H       0.06898      2.73129      0.98195        -0.214900     -0.080129      0.809566
N       0.63809      2.67209      0.15185        -0.475123     -0.386146     -1.166355
