  # total energy =   -19.32188726 
CRSYTAL
PRIMVEC
     6.7020160000000004    0.0000000000000000    0.0000000000000000
     0.0000000000000000    6.7020160000000004    0.0000000000000000
     0.0000000000000000    0.0000000000000000    6.7020160000000004
PRESSURE
-0.767307 0.026581 -0.59546 -0.142842 0.02034 -0.168981
PRIMCOORD
4 1
H       6.43551      3.56158      5.42798         0.510598      0.372798      0.389842
H       1.23293      4.06991      6.25921        -0.905278     -0.089814     -0.243193
H       6.44220      3.84482      0.44351         0.525955      0.055144     -0.897909
N       0.27841      3.69756      6.27896        -0.130846     -0.339240      0.751841
