  # total energy =   -19.10585246 
CRSYTAL
PRIMVEC
     6.7020160000000004    0.0000000000000000    0.0000000000000000
     0.0000000000000000    6.7020160000000004    0.0000000000000000
     0.0000000000000000    0.0000000000000000    6.7020160000000004
PRESSURE
-0.205908 -1.27367 -0.410204 -0.14751 0.647451 0.03419
PRIMCOORD
4 1
H       6.66125      4.00194      5.67977        -0.614005     -1.181344     -0.110190
H       1.27662      3.82257      6.27489        -0.284553     -1.089010      0.866026
H       6.64640      4.01257      0.51387         0.906698     -1.672102     -0.924983
N       0.33298      3.34953      6.42579        -0.008744      3.942444      0.169150
