  # total energy =   -19.33930963 
CRSYTAL
PRIMVEC
     6.7020160000000004    0.0000000000000000    0.0000000000000000
     0.0000000000000000    6.7020160000000004    0.0000000000000000
     0.0000000000000000    0.0000000000000000    6.7020160000000004
PRESSURE
0.101812 -0.287173 -0.138627 -0.028652 0.018523 -0.05005
PRIMCOORD
4 1
H       0.59882      3.26998      6.32949        -0.233680     -0.031981     -0.000865
H       0.50017      1.53923      6.56400        -0.118347      0.546499      0.029738
H       0.44940      2.58982      1.22421        -0.155148      0.132900     -0.230501
N       0.63386      2.47364      0.23871         0.507556     -0.647545      0.202146
