  # total energy =   -19.12659906 
CRSYTAL
PRIMVEC
     6.7020160000000004    0.0000000000000000    0.0000000000000000
     0.0000000000000000    6.7020160000000004    0.0000000000000000
     0.0000000000000000    0.0000000000000000    6.7020160000000004
PRESSURE
0.057786 -1.14868 -0.274457 -0.086619 0.623179 0.096015
PRIMCOORD
4 1
H       6.65778      4.00431      5.67089        -0.722120     -1.147057     -0.208161
H       1.25441      3.84328      6.26318         0.189838     -0.922923      0.884662
H       6.63356      4.01480      0.49572         0.849616     -1.500329     -0.693740
N       0.33157      3.36288      6.42052        -0.317644      3.570952      0.017423
