  # total energy =   -19.41056923 
CRSYTAL
PRIMVEC
     6.7020160000000004    0.0000000000000000    0.0000000000000000
     0.0000000000000000    6.7020160000000004    0.0000000000000000
     0.0000000000000000    0.0000000000000000    6.7020160000000004
PRESSURE
0.128957 0.082549 -0.538409 0.139383 -0.061907 0.149886
PRIMCOORD
4 1
H       0.36045      3.29404      6.22169         0.009449     -0.429821      0.777804
H       0.52085      1.66673      6.47401        -0.352102     -0.585814      0.279940
H       0.27973      2.71618      1.14012        -0.277334     -0.300281     -0.365942
N       0.63091      2.56552      0.19958         0.619118      1.315542     -0.691314
