  # total energy =   -19.34883127 
CRSYTAL
PRIMVEC
     6.7020160000000004    0.0000000000000000    0.0000000000000000
     0.0000000000000000    6.7020160000000004    0.0000000000000000
     0.0000000000000000    0.0000000000000000    6.7020160000000004
PRESSURE
-0.09599 0.427308 -0.303496 0.33162 0.257356 -0.22519
PRIMCOORD
4 1
H       0.39884      3.90719      5.23881        -0.007105     -1.068579     -0.362447
H       6.68537      5.50142      5.32757        -0.393820      0.073443      0.198968
H       6.06620      4.42092      6.56010         0.398599      0.053614     -0.940027
N       0.04734      4.62366      5.82076         0.002367      0.942385      1.104201
