  # total energy =   -19.25078621 
CRSYTAL
PRIMVEC
     6.7020160000000004    0.0000000000000000    0.0000000000000000
     0.0000000000000000    6.7020160000000004    0.0000000000000000
     0.0000000000000000    0.0000000000000000    6.7020160000000004
PRESSURE
-0.803094 -0.258367 -0.667641 0.46319 -0.209464 0.289563
PRIMCOORD
4 1
H       1.75504      1.43241      0.24820        -0.884052      0.066689     -0.141964
H       6.67661      1.61895      0.44498         0.687823     -0.395613      0.073652
H       1.03871      0.84064      1.68123        -0.733884      0.883649     -1.510405
N       0.90398      1.41958      0.81199         0.929626     -0.553784      1.578215
