  # total energy =   -19.31646965 
CRSYTAL
PRIMVEC
     6.7020160000000004    0.0000000000000000    0.0000000000000000
     0.0000000000000000    6.7020160000000004    0.0000000000000000
     0.0000000000000000    0.0000000000000000    6.7020160000000004
PRESSURE
-0.159633 -0.656588 0.092464 0.082804 -0.21627 -0.424539
PRIMCOORD
4 1
H       0.92668      3.01295      6.49039        -0.379836     -0.519476      0.799799
H       0.14497      1.46220      6.61040         0.623158      1.161063      0.809126
H       0.60144      2.29761      1.35421        -0.346100      0.408267      1.088219
N       0.71173      2.20162      0.38260         0.101721     -1.050486     -2.697995
