  # total energy =   -19.41616089 
CRSYTAL
PRIMVEC
     6.7020160000000004    0.0000000000000000    0.0000000000000000
     0.0000000000000000    6.7020160000000004    0.0000000000000000
     0.0000000000000000    0.0000000000000000    6.7020160000000004
PRESSURE
0.09404 0.446558 -0.622175 0.069897 0.071236 0.177325
PRIMCOORD
4 1
H       0.32131      3.28675      6.21859        -0.026321     -0.116518      0.512833
H       0.52044      1.69271      6.46705        -0.407113     -1.130992      0.122142
H       0.24509      2.73564      1.13174        -0.062429     -0.458402     -0.801564
N       0.63129      2.58073      0.19138         0.494798      1.705420      0.166877
