  # total energy =   -19.46655215 
CRSYTAL
PRIMVEC
     6.7020160000000004    0.0000000000000000    0.0000000000000000
     0.0000000000000000    6.7020160000000004    0.0000000000000000
     0.0000000000000000    0.0000000000000000    6.7020160000000004
PRESSURE
0.306886 0.118131 0.052457 -0.079253 -0.384823 -0.058381
PRIMCOORD
4 1
H       6.60408      3.77331      5.71132         0.242358      0.266808     -0.128298
H       1.35701      3.40060      6.47597         0.553274      0.025293     -0.776760
H       0.12780      3.74760      0.64580        -0.617105      0.061033      0.018206
N       0.35552      3.27900      6.47186        -0.179455     -0.352676      0.887061
