  # total energy =   -19.17831201 
CRSYTAL
PRIMVEC
     6.7020160000000004    0.0000000000000000    0.0000000000000000
     0.0000000000000000    6.7020160000000004    0.0000000000000000
     0.0000000000000000    0.0000000000000000    6.7020160000000004
PRESSURE
0.649259 -0.277934 1.13518 -0.193798 0.050287 0.486254
PRIMCOORD
4 1
H       0.96812      2.84215      0.19520         0.866670     -0.245256     -1.135410
H       6.58453      1.79089      0.15705        -1.157596     -0.803318     -0.723494
H       0.57568      2.26925      1.40294        -0.045474     -0.807475      1.707810
N       0.81959      1.86293      0.50697         0.335225      1.856262      0.151571
