  # total energy =   -19.12576138 
CRSYTAL
PRIMVEC
     6.7020160000000004    0.0000000000000000    0.0000000000000000
     0.0000000000000000    6.7020160000000004    0.0000000000000000
     0.0000000000000000    0.0000000000000000    6.7020160000000004
PRESSURE
-0.388607 -1.27732 -0.439375 -0.170217 0.603857 -0.031512
PRIMCOORD
4 1
H       6.66133      3.99329      5.68784        -0.500723     -1.154561     -0.059305
H       1.29685      3.79649      6.29097        -0.632267     -1.161788      0.783664
H       6.66379      4.00144      0.52671         0.845290     -1.678274     -0.962900
N       0.33436      3.33798      6.43101         0.287084      3.994148      0.238383
