  # total energy =   -19.25812926 
CRSYTAL
PRIMVEC
     6.7020160000000004    0.0000000000000000    0.0000000000000000
     0.0000000000000000    6.7020160000000004    0.0000000000000000
     0.0000000000000000    0.0000000000000000    6.7020160000000004
PRESSURE
0.418976 0.327665 -0.4067 -0.271606 -0.052747 0.107339
PRIMCOORD
4 1
H       0.30890      3.85007      5.14622        -0.727764     -0.019679      1.247391
H       0.11026      5.41354      5.35497        -0.626462      0.660734      0.544315
H       6.09546      4.38223      6.55904        -1.368006     -0.263913      0.603824
N       0.06605      4.55115      5.87087         2.721106     -0.377279     -2.395373
