  # total energy =   -19.42985014 
CRSYTAL
PRIMVEC
     6.7020160000000004    0.0000000000000000    0.0000000000000000
     0.0000000000000000    6.7020160000000004    0.0000000000000000
     0.0000000000000000    0.0000000000000000    6.7020160000000004
PRESSURE
0.082574 0.430192 -0.673723 -0.328332 0.368521 -0.11264
PRIMCOORD
4 1
H       6.70128      3.29470      5.96251        -0.501421      0.520156      0.047004
H       0.78719      2.00453      6.39698         0.041635     -0.684899      0.625834
H       0.03439      2.97782      0.93109         0.354592     -0.491826     -1.112135
N       0.54484      2.92511      0.02505         0.105453      0.657629      0.439811
