  # total energy =   -19.43152618 
CRSYTAL
PRIMVEC
     6.7020160000000004    0.0000000000000000    0.0000000000000000
     0.0000000000000000    6.7020160000000004    0.0000000000000000
     0.0000000000000000    0.0000000000000000    6.7020160000000004
PRESSURE
-0.009323 -0.511168 0.333318 -0.151502 -0.509432 -0.104945
PRIMCOORD
4 1
H       6.64124      3.25387      6.03867         0.556421      0.139658      0.308853
H       0.57861      1.85817      6.46171         0.428782      0.993482      0.334924
H       6.67514      2.82422      0.84743        -0.539983      0.146772      1.218587
N       0.58890      2.87472      0.06060        -0.444223     -1.280091     -1.862397
