  # total energy =   -19.32543779 
CRSYTAL
PRIMVEC
     6.7020160000000004    0.0000000000000000    0.0000000000000000
     0.0000000000000000    6.7020160000000004    0.0000000000000000
     0.0000000000000000    0.0000000000000000    6.7020160000000004
PRESSURE
-0.18329 -0.609477 0.095979 0.24067 -0.273085 0.44033
PRIMCOORD
4 1
H       6.68604      3.46695      5.92307         0.211756     -0.666562      0.361738
H       1.03840      2.12906      6.51503        -0.890730      1.005059     -0.294240
H       0.13515      3.05999      0.89526        -0.529913      0.118783      0.460202
N       0.49355      2.99738      6.67133         1.209895     -0.457290     -0.529155
