  # total energy =   -19.22965695 
CRSYTAL
PRIMVEC
     6.7020160000000004    0.0000000000000000    0.0000000000000000
     0.0000000000000000    6.7020160000000004    0.0000000000000000
     0.0000000000000000    0.0000000000000000    6.7020160000000004
PRESSURE
-0.002231 -1.4944 0.36482 -0.0533 -0.122459 -0.38017
PRIMCOORD
4 1
H       0.80612      3.20456      6.45141        -0.377286     -1.278312      0.327687
H       0.36577      1.42624      6.58769         0.377612      1.844337      0.600633
H       0.57739      2.48508      1.27299        -0.289879     -0.040564      1.179310
N       0.66074      2.34338      0.30463         0.289832     -0.524676     -2.106805
