  # total energy =   -19.52893352 
CRSYTAL
PRIMVEC
     6.7020160000000004    0.0000000000000000    0.0000000000000000
     0.0000000000000000    6.7020160000000004    0.0000000000000000
     0.0000000000000000    0.0000000000000000    6.7020160000000004
PRESSURE
0.102888 0.189884 0.155764 -0.111352 -0.076871 0.014568
PRIMCOORD
4 1
H       1.53446      0.71739      0.22261         0.123598     -0.004637     -0.163505
H       0.21721      1.53268      0.71481        -0.096409      0.102298     -0.041794
H       0.72242      0.22767      1.52767        -0.145090     -0.363998      0.288800
N       1.05205      1.05646      1.05175         0.118126      0.266784     -0.083151
