  # total energy =   -19.40000564 
CRSYTAL
PRIMVEC
     6.7020160000000004    0.0000000000000000    0.0000000000000000
     0.0000000000000000    6.7020160000000004    0.0000000000000000
     0.0000000000000000    0.0000000000000000    6.7020160000000004
PRESSURE
-0.808079 0.058574 -0.830347 -0.133765 -0.04914 0.17577
PRIMCOORD
4 1
H       6.61294      3.67419      5.69735         0.402537      0.183270      0.469054
H       1.40868      3.16085      6.44412        -1.237363      0.378042     -0.209763
H       0.10045      3.61949      0.73591         0.171128     -0.087508     -1.262807
N       0.37082      3.24798      6.50285         0.664182     -0.474962      1.002814
