  # total energy =   -19.28305159 
CRSYTAL
PRIMVEC
     6.7020160000000004    0.0000000000000000    0.0000000000000000
     0.0000000000000000    6.7020160000000004    0.0000000000000000
     0.0000000000000000    0.0000000000000000    6.7020160000000004
PRESSURE
0.772893 0.82722 0.591261 0.23188 -0.72942 0.2965
PRIMCOORD
4 1
H       6.51667      3.80326      5.19123         0.125203     -1.180692     -0.334913
H       0.18965      5.14680      5.61279         0.857531      1.167518      0.128926
H       6.05961      4.32523      6.53849        -1.796529     -0.134521      1.782954
N       0.19441      4.22622      6.03697         0.814260      0.148612     -1.577569
