  # total energy =   -19.30173058 
CRSYTAL
PRIMVEC
     6.7020160000000004    0.0000000000000000    0.0000000000000000
     0.0000000000000000    6.7020160000000004    0.0000000000000000
     0.0000000000000000    0.0000000000000000    6.7020160000000004
PRESSURE
-0.358929 -0.064087 -0.633973 -0.036816 0.292594 -0.13575
PRIMCOORD
4 1
H       6.57547      3.45978      5.33817        -0.064878      0.206289      0.405489
H       1.03630      4.51646      6.06556        -0.523774     -0.173887      0.203934
H       6.36453      3.93697      0.33327         0.512529      0.094756     -0.949997
N       0.21756      3.92332      6.17080         0.077260     -0.127146      0.341387
