  # total energy =   -19.21820748 
CRSYTAL
PRIMVEC
     6.7020160000000004    0.0000000000000000    0.0000000000000000
     0.0000000000000000    6.7020160000000004    0.0000000000000000
     0.0000000000000000    0.0000000000000000    6.7020160000000004
PRESSURE
0.979804 0.428201 1.39055 0.112221 -0.709017 0.417535
PRIMCOORD
4 1
H       6.58323      3.46492      5.36283        -0.294521     -0.298525     -0.708343
H       0.94852      4.59057      6.07212         1.037525      0.948496     -0.316058
H       6.39582      3.97782      0.24536        -1.854180      0.057524      2.564307
N       0.20912      3.95823      6.15179         1.112153     -0.707279     -1.540317
