  # total energy =   -19.23612053 
CRSYTAL
PRIMVEC
     6.7020160000000004    0.0000000000000000    0.0000000000000000
     0.0000000000000000    6.7020160000000004    0.0000000000000000
     0.0000000000000000    0.0000000000000000    6.7020160000000004
PRESSURE
0.899561 0.379816 1.24026 0.093574 -0.647412 0.377108
PRIMCOORD
4 1
H       6.58303      3.46464      5.35987        -0.277000     -0.240346     -0.561320
H       0.96192      4.57294      6.07159         0.940426      0.863163     -0.242269
H       6.39626      3.96959      0.25356        -1.689615      0.065470      2.344714
N       0.21043      3.95177      6.15587         1.027039     -0.687641     -1.541338
