  # total energy =   -19.29281826 
CRSYTAL
PRIMVEC
     6.7020160000000004    0.0000000000000000    0.0000000000000000
     0.0000000000000000    6.7020160000000004    0.0000000000000000
     0.0000000000000000    0.0000000000000000    6.7020160000000004
PRESSURE
-0.680116 0.037637 -0.6982 -0.063734 0.383141 -0.102455
PRIMCOORD
4 1
H       6.46516      3.52592      5.40983         0.196005      0.237880      0.177494
H       1.20799      4.12956      6.20214        -0.656054     -0.023672      0.075847
H       6.40529      3.83653      0.43024         0.971832      0.092837     -1.308879
N       0.26703      3.74634      6.25882        -0.512025     -0.305730      1.055651
