  # total energy =   -19.32229695 
CRSYTAL
PRIMVEC
     6.7020160000000004    0.0000000000000000    0.0000000000000000
     0.0000000000000000    6.7020160000000004    0.0000000000000000
     0.0000000000000000    0.0000000000000000    6.7020160000000004
PRESSURE
0.034788 -1.04785 0.23069 -0.270407 -0.072501 0.495654
PRIMCOORD
4 1
H       0.42925      3.85453      5.30385        -0.679609      1.508931      0.038387
H       6.51643      5.58201      5.33157         0.270626     -0.838352     -0.437842
H       6.04671      4.44823      6.45886        -0.485175     -0.232102      0.336664
N       0.03822      4.69428      5.78356         0.894232     -0.437970      0.063137
