  # total energy =   -19.48357216 
CRSYTAL
PRIMVEC
     6.7020160000000004    0.0000000000000000    0.0000000000000000
     0.0000000000000000    6.7020160000000004    0.0000000000000000
     0.0000000000000000    0.0000000000000000    6.7020160000000004
PRESSURE
-0.134013 -0.089936 -0.528282 -0.20353 -0.107574 0.003685
PRIMCOORD
4 1
H       6.65968      3.26279      5.99104         0.359116      0.186620      0.688235
H       0.65883      1.91727      6.41724         0.126105      0.250492      0.651182
H       6.69302      2.89342      0.89710         0.131533     -0.186137     -0.286937
N       0.57234      2.89494      0.04770        -0.616177     -0.250607     -1.052856
