  # total energy =   -19.24366331 
CRSYTAL
PRIMVEC
     6.7020160000000004    0.0000000000000000    0.0000000000000000
     0.0000000000000000    6.7020160000000004    0.0000000000000000
     0.0000000000000000    0.0000000000000000    6.7020160000000004
PRESSURE
0.22702 0.119023 0.707309 0.156655 -0.270105 -0.139155
PRIMCOORD
4 1
H       6.67554      3.54311      5.89618        -0.115266      0.025944     -0.742819
H       1.17704      2.38613      6.54949         0.187334     -0.177766     -0.837470
H       0.13717      3.16486      0.84586        -0.618257      0.324056      0.813924
N       0.45550      3.07093      6.61871         0.544978     -0.172134      0.767885
