  # total energy =   -19.34029127 
CRSYTAL
PRIMVEC
     6.7020160000000004    0.0000000000000000    0.0000000000000000
     0.0000000000000000    6.7020160000000004    0.0000000000000000
     0.0000000000000000    0.0000000000000000    6.7020160000000004
PRESSURE
0.080707 -0.141385 0.453671 0.112188 -0.068053 -0.063642
PRIMCOORD
4 1
H       0.91289      3.03964      6.49941        -0.241270     -0.199839      0.271727
H       0.21530      1.47009      6.61047        -0.146916      0.166023      0.193187
H       0.61646      2.34590      1.33662        -0.342789      0.177522      1.153942
N       0.69769      2.22829      0.36593         0.731097     -0.144350     -1.619475
