  # total energy =   -19.38353208 
CRSYTAL
PRIMVEC
     6.7020160000000004    0.0000000000000000    0.0000000000000000
     0.0000000000000000    6.7020160000000004    0.0000000000000000
     0.0000000000000000    0.0000000000000000    6.7020160000000004
PRESSURE
-0.120595 0.351977 -0.859258 0.050307 0.131371 -0.073609
PRIMCOORD
4 1
H       0.93551      2.90163      6.54316        -0.034478      0.880850      0.365117
H       0.00156      1.55689      6.69504         0.270472      0.213593      0.143335
H       0.53418      2.19429      1.43743         0.336254      0.687072     -1.302624
N       0.75453      2.10654      0.42179        -0.572386     -1.782436      0.794243
