  # total energy =   -19.26091417 
CRSYTAL
PRIMVEC
     6.7020160000000004    0.0000000000000000    0.0000000000000000
     0.0000000000000000    6.7020160000000004    0.0000000000000000
     0.0000000000000000    0.0000000000000000    6.7020160000000004
PRESSURE
-1.04386 -0.115097 -0.694968 -0.108296 -0.455477 -0.449144
PRIMCOORD
4 1
H       1.54126      2.33216      0.22004        -1.185573     -0.375968     -0.222770
H       6.58666      1.57695      0.19334         1.056050      0.601044      0.582328
H       0.95655      1.69149      1.64421        -0.855470     -0.093373     -1.105037
N       0.81827      1.71131      0.61510         0.984662     -0.131114      0.744524
