  # total energy =   -19.49387127 
CRSYTAL
PRIMVEC
     6.7020160000000004    0.0000000000000000    0.0000000000000000
     0.0000000000000000    6.7020160000000004    0.0000000000000000
     0.0000000000000000    0.0000000000000000    6.7020160000000004
PRESSURE
0.064751 0.301022 0.355626 0.175233 0.008454 -0.102935
PRIMCOORD
4 1
H       0.06923      3.73934      5.21910         0.008795     -0.423153     -0.792921
H       0.13747      5.36920      5.51268        -0.217218      0.341333     -0.253500
H       6.01710      4.32255      6.52671        -0.098884      0.279837      0.007333
N       0.11883      4.44952      5.91870         0.307326     -0.198077      1.038799
