  # total energy =   -19.31402955 
CRSYTAL
PRIMVEC
     6.7020160000000004    0.0000000000000000    0.0000000000000000
     0.0000000000000000    6.7020160000000004    0.0000000000000000
     0.0000000000000000    0.0000000000000000    6.7020160000000004
PRESSURE
0.270968 0.148874 0.430976 0.022464 -0.167505 0.128339
PRIMCOORD
4 1
H       6.57817      3.45989      5.35932        -0.141298     -0.094845     -0.627273
H       0.91276      4.68244      6.06679         0.234314      0.258368     -0.440792
H       6.35847      4.01295      0.25913        -0.486344     -0.022710      0.366368
N       0.20522      3.98414      6.13308         0.394341     -0.141508      0.701196
