  # total energy =   -19.47014693 
CRSYTAL
PRIMVEC
     6.7020160000000004    0.0000000000000000    0.0000000000000000
     0.0000000000000000    6.7020160000000004    0.0000000000000000
     0.0000000000000000    0.0000000000000000    6.7020160000000004
PRESSURE
-0.306425 -0.181857 -0.307322 0.256767 0.400261 -0.197328
PRIMCOORD
4 1
H       0.10588      3.74537      5.19792        -0.131505     -0.062635     -0.175927
H       0.14574      5.38920      5.47975        -0.383997     -0.334815      0.240495
H       6.00596      4.31939      6.55983         0.767723      0.449596     -0.934975
N       0.11258      4.46190      5.91278        -0.251236     -0.052012      0.869861
