  # total energy =   -19.30388211 
CRSYTAL
PRIMVEC
     6.7020160000000004    0.0000000000000000    0.0000000000000000
     0.0000000000000000    6.7020160000000004    0.0000000000000000
     0.0000000000000000    0.0000000000000000    6.7020160000000004
PRESSURE
0.172444 0.428541 -0.237372 -0.222595 0.015172 0.192486
PRIMCOORD
4 1
H       0.88190      3.08165      6.51353        -0.026846      0.515629     -0.609971
H       0.29603      1.46765      6.60891        -0.513280     -0.564229     -0.256602
H       0.61900      2.41898      1.35058        -0.205459     -0.385920     -0.845729
N       0.68086      2.26804      0.33869         0.745798      0.434415      1.711809
