  # total energy =   -19.32855597 
CRSYTAL
PRIMVEC
     6.7020160000000004    0.0000000000000000    0.0000000000000000
     0.0000000000000000    6.7020160000000004    0.0000000000000000
     0.0000000000000000    0.0000000000000000    6.7020160000000004
PRESSURE
0.673738 0.633014 0.374524 0.249822 -0.66413 0.256114
PRIMCOORD
4 1
H       6.51918      3.79648      5.18599         0.137769     -1.022505     -0.065734
H       0.21153      5.14644      5.61345         0.747661      0.831279      0.316126
H       6.06466      4.31684      6.55881        -1.563547     -0.094852      1.529325
N       0.19454      4.21917      6.04017         0.678777      0.287175     -1.780185
