  # total energy =   -19.22080460 
CRSYTAL
PRIMVEC
     6.7020160000000004    0.0000000000000000    0.0000000000000000
     0.0000000000000000    6.7020160000000004    0.0000000000000000
     0.0000000000000000    0.0000000000000000    6.7020160000000004
PRESSURE
0.71283 0.564044 1.25338 -0.341931 -0.619074 0.038673
PRIMCOORD
4 1
H       0.39682      3.91542      5.35287         0.433294     -0.276394     -1.436108
H       6.41874      5.55397      5.31936        -0.027566      0.822389     -1.669410
H       6.03479      4.45962      6.36967        -1.620653     -0.631324      1.652798
N       0.03508      4.73963      5.76161         1.215600      0.084312      1.452527
