  # total energy =   -19.14214481 
CRSYTAL
PRIMVEC
     6.7020160000000004    0.0000000000000000    0.0000000000000000
     0.0000000000000000    6.7020160000000004    0.0000000000000000
     0.0000000000000000    0.0000000000000000    6.7020160000000004
PRESSURE
-0.63104 -0.005377 0.533326 0.321769 0.258064 -0.543455
PRIMCOORD
4 1
H       6.64662      3.25395      6.16399         0.263192      0.337648     -0.823508
H       0.43594      1.80650      6.58485         0.992627      0.016627     -1.015051
H       6.59459      2.68053      0.84935         1.105665      1.070861      0.367332
N       0.62591      2.81045      0.08420        -2.362643     -1.424110      1.471338
