  # total energy =   -19.47403764 
CRSYTAL
PRIMVEC
     6.7020160000000004    0.0000000000000000    0.0000000000000000
     0.0000000000000000    6.7020160000000004    0.0000000000000000
     0.0000000000000000    0.0000000000000000    6.7020160000000004
PRESSURE
0.0663 0.334406 -0.302203 -0.309736 0.155573 0.07944
PRIMCOORD
4 1
H       0.22345      3.27310      6.22106        -0.150022      0.419915     -0.199045
H       0.50474      1.71229      6.45524        -0.257798     -0.486268      0.410004
H       0.16283      2.76315      1.07850         0.092963     -0.565147     -0.565278
N       0.63336      2.62183      0.17278         0.314104      0.632657      0.353227
