  # total energy =   -19.45118705 
CRSYTAL
PRIMVEC
     6.7020160000000004    0.0000000000000000    0.0000000000000000
     0.0000000000000000    6.7020160000000004    0.0000000000000000
     0.0000000000000000    0.0000000000000000    6.7020160000000004
PRESSURE
0.444634 0.893394 0.680296 -0.49553 -0.338514 0.102248
PRIMCOORD
4 1
H       1.50957      0.70954      0.23146         0.576427     -0.012222     -0.762076
H       0.20530      1.50037      0.69619        -0.408835      0.443364     -0.182367
H       0.73303      0.25427      1.47759        -0.709038     -1.817589      1.374327
N       1.04989      1.07214      1.04822         0.541554      1.385517     -0.429761
