  # total energy =   -19.27677824 
CRSYTAL
PRIMVEC
     6.7020160000000004    0.0000000000000000    0.0000000000000000
     0.0000000000000000    6.7020160000000004    0.0000000000000000
     0.0000000000000000    0.0000000000000000    6.7020160000000004
PRESSURE
0.455218 0.211237 0.322858 -0.07557 0.235836 -0.235406
PRIMCOORD
4 1
H       6.68553      3.57488      5.74130        -0.554277      0.478805     -0.212597
H       1.31534      2.85584      6.35387         0.740387     -0.159633      0.648562
H       0.04626      3.43271      0.74684         0.159626      0.244032      0.659226
N       0.40336      3.19109      6.55795        -0.345238     -0.563532     -1.094744
