  # total energy =   -19.12713621 
CRSYTAL
PRIMVEC
     6.7020160000000004    0.0000000000000000    0.0000000000000000
     0.0000000000000000    6.7020160000000004    0.0000000000000000
     0.0000000000000000    0.0000000000000000    6.7020160000000004
PRESSURE
-0.95703 -0.970435 -1.35212 -0.427214 0.580387 -0.633393
PRIMCOORD
4 1
H       6.56335      3.45565      5.32076         0.370950      1.017156      0.488662
H       0.83266      4.87770      6.02311        -1.254901     -1.500176     -0.491390
H       6.26599      4.08601      0.28076         1.455940     -0.143562     -2.482013
N       0.19805      4.04031      6.09762        -0.572104      0.627425      2.484614
