  # total energy =   -19.28129956 
CRSYTAL
PRIMVEC
     6.7020160000000004    0.0000000000000000    0.0000000000000000
     0.0000000000000000    6.7020160000000004    0.0000000000000000
     0.0000000000000000    0.0000000000000000    6.7020160000000004
PRESSURE
-0.713163 -0.667706 -0.448939 -0.693192 -0.164663 0.032338
PRIMCOORD
4 1
H       0.91563      2.93050      0.11362         0.285344     -0.611808     -0.803553
H       6.54357      1.69303      0.07272         1.347891      0.288134      0.506314
H       0.52624      2.35448      1.43242         0.331155     -1.452501     -0.963861
N       0.80330      1.95425      0.46543        -1.964931      1.776143      1.261130
