  # total energy =   -19.22791153 
CRSYTAL
PRIMVEC
     6.7020160000000004    0.0000000000000000    0.0000000000000000
     0.0000000000000000    6.7020160000000004    0.0000000000000000
     0.0000000000000000    0.0000000000000000    6.7020160000000004
PRESSURE
-0.664718 -0.529232 -0.899207 -0.239885 0.435552 -0.394408
PRIMCOORD
4 1
H       6.56903      3.45227      5.33993         0.180864      0.540837      0.039039
H       0.88151      4.78892      6.04994        -0.892537     -0.940382     -0.468310
H       6.30260      4.05043      0.28847         1.031946     -0.109008     -1.922831
N       0.20186      4.01176      6.11376        -0.319963      0.508608      2.351607
