  # total energy =   -19.46034203 
CRSYTAL
PRIMVEC
     6.7020160000000004    0.0000000000000000    0.0000000000000000
     0.0000000000000000    6.7020160000000004    0.0000000000000000
     0.0000000000000000    0.0000000000000000    6.7020160000000004
PRESSURE
-0.384991 0.029779 -0.516914 -0.307146 0.064684 0.065896
PRIMCOORD
4 1
H       6.44868      3.74387      5.50662         0.339258      0.312883      0.033099
H       1.24685      3.95260      6.32844        -0.305630      0.124668     -0.425861
H       6.52068      3.93379      0.48204         0.471477     -0.372416     -1.105624
N       0.30679      3.55555      6.33515        -0.503839     -0.063850      1.498946
