  # total energy =   -19.32300346 
CRSYTAL
PRIMVEC
     6.7020160000000004    0.0000000000000000    0.0000000000000000
     0.0000000000000000    6.7020160000000004    0.0000000000000000
     0.0000000000000000    0.0000000000000000    6.7020160000000004
PRESSURE
0.13492 -0.907113 0.017077 0.082497 -0.144575 -0.070349
PRIMCOORD
4 1
H       0.54634      3.29042      6.28922        -0.183816     -0.705399      0.662696
H       0.50722      1.54775      6.53294        -0.070453      1.215252      0.483965
H       0.41965      2.61617      1.19100        -0.436100      0.194272      0.705701
N       0.63211      2.49568      0.23239         0.689880     -0.704336     -1.852439
