  # total energy =   -19.23635725 
CRSYTAL
PRIMVEC
     6.7020160000000004    0.0000000000000000    0.0000000000000000
     0.0000000000000000    6.7020160000000004    0.0000000000000000
     0.0000000000000000    0.0000000000000000    6.7020160000000004
PRESSURE
-0.339587 -0.047548 -1.10245 -0.229093 0.518232 0.178602
PRIMCOORD
4 1
H       6.68127      3.56502      5.75994         0.022273     -0.002417      0.558745
H       1.29857      2.68848      6.37176        -0.298538      0.210686      0.714606
H       0.03156      3.36624      0.82371         0.982277     -0.409550     -1.528860
N       0.42073      3.15450      6.57849        -0.705861      0.201714      0.254552
