  # total energy =   -19.49846126 
CRSYTAL
PRIMVEC
     6.7020160000000004    0.0000000000000000    0.0000000000000000
     0.0000000000000000    6.7020160000000004    0.0000000000000000
     0.0000000000000000    0.0000000000000000    6.7020160000000004
PRESSURE
0.057438 -0.45138 0.204529 -0.263781 -0.229171 0.028167
PRIMCOORD
4 1
H       0.14927      3.28421      6.21522         0.213618     -0.082652     -0.046450
H       0.47846      1.69712      6.47108         0.053879      0.801093      0.556463
H       0.10859      2.74891      1.01161        -0.318199     -0.276781      0.685845
N       0.63616      2.65322      0.16089         0.050550     -0.441307     -1.196532
