  # total energy =   -19.46231294 
CRSYTAL
PRIMVEC
     6.7020160000000004    0.0000000000000000    0.0000000000000000
     0.0000000000000000    6.7020160000000004    0.0000000000000000
     0.0000000000000000    0.0000000000000000    6.7020160000000004
PRESSURE
-0.136162 0.197667 -0.845182 -0.229106 0.144167 -0.014142
PRIMCOORD
4 1
H       6.67345      3.26933      5.97578         0.109865      0.291302      0.630250
H       0.69989      1.95048      6.40317         0.076003     -0.277263      0.671659
H       0.00005      2.92533      0.92046         0.431426     -0.342828     -0.983105
N       0.56377      2.90443      0.04038        -0.617225      0.329695     -0.318324
