  # total energy =   -19.28515446 
CRSYTAL
PRIMVEC
     6.7020160000000004    0.0000000000000000    0.0000000000000000
     0.0000000000000000    6.7020160000000004    0.0000000000000000
     0.0000000000000000    0.0000000000000000    6.7020160000000004
PRESSURE
-0.979021 -0.118219 -0.541834 -0.098642 -0.396476 -0.440505
PRIMCOORD
4 1
H       1.53204      2.34326      0.21479        -1.153390     -0.379537     -0.185181
H       6.58765      1.58139      0.19313         0.982480      0.587567      0.544271
H       0.94708      1.69986      1.63637        -0.775835     -0.085459     -0.831860
N       0.81818      1.71456      0.61343         0.946610     -0.122033      0.471891
