  # total energy =   -19.45330671 
CRSYTAL
PRIMVEC
     6.7020160000000004    0.0000000000000000    0.0000000000000000
     0.0000000000000000    6.7020160000000004    0.0000000000000000
     0.0000000000000000    0.0000000000000000    6.7020160000000004
PRESSURE
0.445951 0.20884 0.644322 0.146063 -0.449072 -0.14692
PRIMCOORD
4 1
H       6.61169      3.80157      5.71700         0.104906      0.210045     -0.324702
H       1.34621      3.45575      6.46422         0.690454     -0.067099     -0.728295
H       0.12542      3.77035      0.60365        -0.909838      0.513707      1.164788
N       0.35207      3.28547      6.46785         0.114068     -0.656351     -0.111739
