  # total energy =   -19.44883621 
CRSYTAL
PRIMVEC
     6.7020160000000004    0.0000000000000000    0.0000000000000000
     0.0000000000000000    6.7020160000000004    0.0000000000000000
     0.0000000000000000    0.0000000000000000    6.7020160000000004
PRESSURE
-0.354665 -0.384432 0.164246 0.209371 -0.148557 0.05515
PRIMCOORD
4 1
H       0.06032      3.29547      6.20287         0.711736     -0.547714      0.157777
H       0.44440      1.72508      6.53076         0.338110      0.405402     -0.302733
H       0.01463      2.70719      0.95683         0.342553      0.207195      0.390234
N       0.63997      2.69602      0.13881        -1.392839     -0.064717     -0.244892
