  # total energy =   -19.38719817 
CRSYTAL
PRIMVEC
     6.7020160000000004    0.0000000000000000    0.0000000000000000
     0.0000000000000000    6.7020160000000004    0.0000000000000000
     0.0000000000000000    0.0000000000000000    6.7020160000000004
PRESSURE
-0.760972 0.017706 -1.08037 -0.247901 -0.093576 0.171641
PRIMCOORD
4 1
H       6.60456      3.69242      5.69540         0.483359      0.187720      0.478365
H       1.40696      3.20914      6.45864        -1.110413      0.314551     -0.393591
H       0.10600      3.65215      0.73911         0.181074     -0.320842     -1.742638
N       0.36736      3.25470      6.49440         0.446180     -0.181596      1.656931
