  # total energy =   -19.21591838 
CRSYTAL
PRIMVEC
     6.7020160000000004    0.0000000000000000    0.0000000000000000
     0.0000000000000000    6.7020160000000004    0.0000000000000000
     0.0000000000000000    0.0000000000000000    6.7020160000000004
PRESSURE
-0.595865 -0.654528 -0.378586 -0.808456 -0.124115 0.168584
PRIMCOORD
4 1
H       0.91489      2.92120      0.14454         0.426061     -0.481585     -1.044669
H       6.54384      1.71148      0.08505         1.119400      0.109002      0.396245
H       0.52981      2.36590      1.43413         0.348993     -1.695544     -0.939534
N       0.80725      1.93757      0.47028        -1.895393      2.067799      1.587905
