  # total energy =   -19.24130457 
CRSYTAL
PRIMVEC
     6.7020160000000004    0.0000000000000000    0.0000000000000000
     0.0000000000000000    6.7020160000000004    0.0000000000000000
     0.0000000000000000    0.0000000000000000    6.7020160000000004
PRESSURE
0.160083 0.042762 1.01325 0.169015 -0.370082 -0.05911
PRIMCOORD
4 1
H       6.67474      3.54610      5.88616        -0.064991      0.014028     -0.663564
H       1.19340      2.40731      6.53665        -0.032711      0.036695     -0.714459
H       0.13456      3.17932      0.82828        -0.811340      0.362087      1.514901
N       0.45176      3.07846      6.61614         0.907528     -0.412308     -0.135743
