  # total energy =   -19.14204050 
CRSYTAL
PRIMVEC
     6.7020160000000004    0.0000000000000000    0.0000000000000000
     0.0000000000000000    6.7020160000000004    0.0000000000000000
     0.0000000000000000    0.0000000000000000    6.7020160000000004
PRESSURE
0.228722 -0.42797 0.370526 -0.674832 0.056834 0.502752
PRIMCOORD
4 1
H       0.92959      2.88100      0.19866         0.808054     -0.131352     -1.409280
H       6.57111      1.76477      0.12978        -0.414087     -0.558768     -0.330908
H       0.55109      2.34330      1.41463         0.206619     -1.627761      0.179150
N       0.81508      1.89318      0.48851        -0.601393      2.318659      1.562509
