  # total energy =   -19.10875705 
CRSYTAL
PRIMVEC
     6.7020160000000004    0.0000000000000000    0.0000000000000000
     0.0000000000000000    6.7020160000000004    0.0000000000000000
     0.0000000000000000    0.0000000000000000    6.7020160000000004
PRESSURE
-0.126365 -1.24541 -0.376807 -0.131794 0.647287 0.055623
PRIMCOORD
4 1
H       6.66050      4.00343      5.67693        -0.651357     -1.176143     -0.138343
H       1.26935      3.83002      6.27050        -0.139277     -1.044021      0.879402
H       6.64163      4.01427      0.50839         0.901694     -1.633954     -0.870182
N       0.33252      3.35377      6.42405        -0.111751      3.854354      0.129241
