  # total energy =   -19.30824427 
CRSYTAL
PRIMVEC
     6.7020160000000004    0.0000000000000000    0.0000000000000000
     0.0000000000000000    6.7020160000000004    0.0000000000000000
     0.0000000000000000    0.0000000000000000    6.7020160000000004
PRESSURE
-0.009747 0.097293 0.387305 -0.111827 -0.13899 0.152765
PRIMCOORD
4 1
H       1.73938      1.37308      0.26413        -0.208349      0.159393     -0.716752
H       0.00429      1.60523      0.46529        -0.270965     -0.202156     -0.335047
H       1.03419      0.81736      1.63068        -0.589026     -0.230430      0.247034
N       0.90999      1.40200      0.82599         1.066616      0.273753      0.803724
