  # total energy =   -19.25388941 
CRSYTAL
PRIMVEC
     6.7020160000000004    0.0000000000000000    0.0000000000000000
     0.0000000000000000    6.7020160000000004    0.0000000000000000
     0.0000000000000000    0.0000000000000000    6.7020160000000004
PRESSURE
-0.932638 -0.20886 -0.916406 0.493944 -0.127458 0.174815
PRIMCOORD
4 1
H       1.74116      1.52796      0.21857        -0.915936     -0.117880      0.229979
H       6.66099      1.62362      0.41695         0.967597     -0.353945      0.252831
H       1.01541      0.91463      1.69532        -0.445252      0.811241     -1.660070
N       0.89718      1.44575      0.79461         0.394079     -0.339610      1.178034
