  # total energy =   -19.42674212 
CRSYTAL
PRIMVEC
     6.7020160000000004    0.0000000000000000    0.0000000000000000
     0.0000000000000000    6.7020160000000004    0.0000000000000000
     0.0000000000000000    0.0000000000000000    6.7020160000000004
PRESSURE
-0.292072 -0.346313 -0.871938 0.255402 0.117194 0.012241
PRIMCOORD
4 1
H       6.53354      3.74739      5.16943         0.166402     -0.206342      0.985712
H       0.31845      5.15541      5.62888         0.041972     -0.771706      0.999991
H       6.05972      4.27951      6.67078         0.619273     -0.044797     -0.552164
N       0.19564      4.19032      6.05047        -0.826884      1.022863     -1.433725
