  # total energy =   -19.41027255 
CRSYTAL
PRIMVEC
     6.7020160000000004    0.0000000000000000    0.0000000000000000
     0.0000000000000000    6.7020160000000004    0.0000000000000000
     0.0000000000000000    0.0000000000000000    6.7020160000000004
PRESSURE
-0.48346 -0.533683 -0.8087 0.264747 0.640424 -0.239705
PRIMCOORD
4 1
H       0.13511      3.74968      5.17904        -0.267584      0.281846      0.376858
H       0.15008      5.40380      5.45405        -0.500414     -0.758575      0.586895
H       6.00135      4.31967      6.58138         1.166665      0.530723     -1.461695
N       0.10737      4.47201      5.90834        -0.397960     -0.053338      0.497993
