  # total energy =   -19.15589540 
CRSYTAL
PRIMVEC
     6.7020160000000004    0.0000000000000000    0.0000000000000000
     0.0000000000000000    6.7020160000000004    0.0000000000000000
     0.0000000000000000    0.0000000000000000    6.7020160000000004
PRESSURE
0.269502 -1.00095 -0.125846 -0.020649 0.565469 0.129844
PRIMCOORD
4 1
H       6.65321      4.00241      5.66416        -0.782776     -1.096660     -0.290293
H       1.23951      3.85466      6.25782         0.558099     -0.762872      0.861454
H       6.62734      4.01168      0.48100         0.734786     -1.284138     -0.421028
N       0.33054      3.37288      6.41689        -0.509848      3.144719     -0.149749
