  # total energy =   -19.37639811 
CRSYTAL
PRIMVEC
     6.7020160000000004    0.0000000000000000    0.0000000000000000
     0.0000000000000000    6.7020160000000004    0.0000000000000000
     0.0000000000000000    0.0000000000000000    6.7020160000000004
PRESSURE
-0.640685 -0.672422 -1.29464 0.219214 0.503891 -0.131739
PRIMCOORD
4 1
H       6.54339      3.71677      5.17265         0.113137      0.100971      1.182782
H       0.37655      5.15285      5.64987        -0.318002     -1.255233      1.096013
H       6.06027      4.25937      0.02460         1.363854     -0.011173     -1.401130
N       0.19564      4.17626      6.05422        -1.158047      1.164518     -0.877382
