  # total energy =   -19.49491067 
CRSYTAL
PRIMVEC
     6.7020160000000004    0.0000000000000000    0.0000000000000000
     0.0000000000000000    6.7020160000000004    0.0000000000000000
     0.0000000000000000    0.0000000000000000    6.7020160000000004
PRESSURE
0.340979 0.40418 0.22787 -0.29725 -0.068489 -0.127864
PRIMCOORD
4 1
H       1.55512      0.98955      0.15319         0.454947     -0.070916     -0.063014
H       0.08020      1.41235      0.47952        -0.436967      0.353815     -0.009223
H       0.83490      0.46719      1.48574         0.055309     -0.819138      0.688976
N       0.98024      1.29185      0.93680        -0.074366      0.535939     -0.616347
