  # total energy =   -19.22597118 
CRSYTAL
PRIMVEC
     6.7020160000000004    0.0000000000000000    0.0000000000000000
     0.0000000000000000    6.7020160000000004    0.0000000000000000
     0.0000000000000000    0.0000000000000000    6.7020160000000004
PRESSURE
0.903549 0.17272 0.715885 -0.281869 0.220888 -0.027621
PRIMCOORD
4 1
H       1.62267      1.77964      0.15235         0.986068      0.016906     -0.000596
H       6.68893      1.59668      0.34738        -1.078469      0.049027     -0.407049
H       0.91859      1.15762      1.65282         0.630448     -0.547219      1.318807
N       0.88093      1.52055      0.74994        -0.538445      0.482770     -0.912012
