  # total energy =   -19.48484305 
CRSYTAL
PRIMVEC
     6.7020160000000004    0.0000000000000000    0.0000000000000000
     0.0000000000000000    6.7020160000000004    0.0000000000000000
     0.0000000000000000    0.0000000000000000    6.7020160000000004
PRESSURE
-0.115062 -0.561218 0.2576 -0.014624 -0.288847 0.055412
PRIMCOORD
4 1
H       0.09781      3.29311      6.20780         0.540268     -0.436458      0.131179
H       0.45863      1.70626      6.50167         0.229624      0.805380      0.151602
H       0.05924      2.72693      0.97663        -0.137601     -0.032696      0.760779
N       0.63849      2.67642      0.14958        -0.632405     -0.336024     -1.044573
