  # total energy =   -19.18605991 
CRSYTAL
PRIMVEC
     6.7020160000000004    0.0000000000000000    0.0000000000000000
     0.0000000000000000    6.7020160000000004    0.0000000000000000
     0.0000000000000000    0.0000000000000000    6.7020160000000004
PRESSURE
-1.09992 -0.070416 -1.04438 -0.137289 -0.618359 -0.40872
PRIMCOORD
4 1
H       1.56941      2.28778      0.23848        -1.158719     -0.267767     -0.404212
H       6.58930      1.56358      0.19768         1.084066      0.591875      0.603001
H       0.98719      1.65901      1.66636        -1.099475     -0.102420     -1.772715
N       0.81904      1.69889      0.62191         1.173230     -0.221399      1.573505
