  # total energy =   -19.41520317 
CRSYTAL
PRIMVEC
     6.7020160000000004    0.0000000000000000    0.0000000000000000
     0.0000000000000000    6.7020160000000004    0.0000000000000000
     0.0000000000000000    0.0000000000000000    6.7020160000000004
PRESSURE
0.001506 -0.540596 0.44029 -0.138953 -0.529739 -0.134996
PRIMCOORD
4 1
H       6.63964      3.25281      6.04733         0.552901      0.150929      0.211815
H       0.56677      1.85089      6.46986         0.489016      1.044743      0.257634
H       6.67141      2.81343      0.84162        -0.583051      0.198768      1.362803
N       0.59142      2.87135      0.06232        -0.458081     -1.394599     -1.832453
