  # total energy =   -19.52126210 
CRSYTAL
PRIMVEC
     6.7020160000000004    0.0000000000000000    0.0000000000000000
     0.0000000000000000    6.7020160000000004    0.0000000000000000
     0.0000000000000000    0.0000000000000000    6.7020160000000004
PRESSURE
0.028856 -0.031416 -0.186278 0.015162 0.018707 -0.081668
PRIMCOORD
4 1
H       1.57733      1.01010      0.14846         0.079987     -0.019685      0.269982
H       0.06701      1.42912      0.47367        -0.032314      0.136230      0.155421
H       0.84605      0.46460      1.51572         0.145210      0.132602     -0.113028
N       0.97609      1.29923      0.93019        -0.193040     -0.249306     -0.312003
