  # total energy =   -19.22688581 
CRSYTAL
PRIMVEC
     6.7020160000000004    0.0000000000000000    0.0000000000000000
     0.0000000000000000    6.7020160000000004    0.0000000000000000
     0.0000000000000000    0.0000000000000000    6.7020160000000004
PRESSURE
-0.122035 -0.157319 -0.820619 0.325996 -0.019277 0.142657
PRIMCOORD
4 1
H       6.67584      3.51837      5.91677         0.226704     -0.608021      0.047259
H       1.09909      2.23734      6.56591        -0.209195      0.065863     -0.887975
H       0.13551      3.09564      0.92682         0.116491      0.177902     -1.579182
N       0.47797      3.02702      6.64277        -0.134372      0.363805      2.420480
