  # total energy =   -19.26654757 
CRSYTAL
PRIMVEC
     6.7020160000000004    0.0000000000000000    0.0000000000000000
     0.0000000000000000    6.7020160000000004    0.0000000000000000
     0.0000000000000000    0.0000000000000000    6.7020160000000004
PRESSURE
0.508513 0.472539 1.16388 -0.605813 -0.070906 0.016767
PRIMCOORD
4 1
H       1.72427      1.33190      0.26753         0.262973      0.160716     -1.065841
H       0.02395      1.59239      0.47644        -0.901535     -0.059751     -0.601667
H       1.02320      0.79924      1.59438        -0.404853     -1.397303      1.793378
N       0.91531      1.38941      0.83695         1.042716      1.295724     -0.125798
