  # total energy =   -19.17311681 
CRSYTAL
PRIMVEC
     6.7020160000000004    0.0000000000000000    0.0000000000000000
     0.0000000000000000    6.7020160000000004    0.0000000000000000
     0.0000000000000000    0.0000000000000000    6.7020160000000004
PRESSURE
-0.378626 -0.600728 -0.205185 -0.841985 -0.066765 0.305159
PRIMCOORD
4 1
H       0.91647      2.90938      0.16956         0.568468     -0.337546     -1.235067
H       6.55008      1.73033      0.09937         0.715515     -0.112936      0.203838
H       0.53521      2.36812      1.43082         0.331931     -1.809755     -0.727117
N       0.81043      1.92185      0.47569        -1.616626      2.260082      1.758063
