  # total energy =   -19.23709378 
CRSYTAL
PRIMVEC
     6.7020160000000004    0.0000000000000000    0.0000000000000000
     0.0000000000000000    6.7020160000000004    0.0000000000000000
     0.0000000000000000    0.0000000000000000    6.7020160000000004
PRESSURE
-0.894698 -0.285133 -0.785036 0.518071 -0.212164 0.295668
PRIMCOORD
4 1
H       1.75608      1.44231      0.24499        -0.956565      0.045124     -0.065158
H       6.67270      1.62045      0.44160         0.802062     -0.413283      0.124622
H       1.03795      0.84581      1.68714        -0.732075      0.971130     -1.676901
N       0.90314      1.42239      0.80992         0.886269     -0.602160      1.617216
