  # total energy =   -19.51183939 
CRSYTAL
PRIMVEC
     6.7020160000000004    0.0000000000000000    0.0000000000000000
     0.0000000000000000    6.7020160000000004    0.0000000000000000
     0.0000000000000000    0.0000000000000000    6.7020160000000004
PRESSURE
-0.175927 -0.282709 -0.448383 0.211266 0.068175 -0.038783
PRIMCOORD
4 1
H       1.59218      1.02341      0.14608        -0.163626      0.010614      0.466237
H       0.05818      1.44052      0.47027         0.223723     -0.001282      0.252369
H       0.85372      0.46299      1.53518         0.171298      0.667509     -0.596432
N       0.97336      1.30401      0.92580        -0.231227     -0.676898     -0.122476
