  # total energy =   -19.30203605 
CRSYTAL
PRIMVEC
     6.7020160000000004    0.0000000000000000    0.0000000000000000
     0.0000000000000000    6.7020160000000004    0.0000000000000000
     0.0000000000000000    0.0000000000000000    6.7020160000000004
PRESSURE
-0.303033 -0.058568 -0.01701 0.121807 -0.171401 0.215171
PRIMCOORD
4 1
H       1.74604      1.39301      0.25979        -0.465240      0.138055     -0.512862
H       6.69571      1.61064      0.45870         0.082192     -0.278836     -0.186100
H       1.03739      0.82440      1.64954        -0.665481      0.256198     -0.474384
N       0.90776      1.40803      0.82099         1.046818     -0.114588      1.171808
