  # total energy =   -19.42564496 
CRSYTAL
PRIMVEC
     6.7020160000000004    0.0000000000000000    0.0000000000000000
     0.0000000000000000    6.7020160000000004    0.0000000000000000
     0.0000000000000000    0.0000000000000000    6.7020160000000004
PRESSURE
0.501644 1.0205 0.76995 -0.562501 -0.385534 0.120338
PRIMCOORD
4 1
H       1.50402      0.70755      0.23274         0.664345     -0.004308     -0.873909
H       0.20179      1.49281      0.69128        -0.454473      0.503011     -0.203904
H       0.73482      0.25873      1.46670        -0.811828     -2.090965      1.576531
N       1.04940      1.07620      1.04730         0.602149      1.591248     -0.498717
