  # total energy =   -19.16360208 
CRSYTAL
PRIMVEC
     6.7020160000000004    0.0000000000000000    0.0000000000000000
     0.0000000000000000    6.7020160000000004    0.0000000000000000
     0.0000000000000000    0.0000000000000000    6.7020160000000004
PRESSURE
-0.288037 -0.576163 -0.128124 -0.835136 -0.045121 0.347399
PRIMCOORD
4 1
H       0.91764      2.90502      0.17642         0.614257     -0.291749     -1.284881
H       6.55313      1.73650      0.10442         0.547491     -0.191144      0.124360
H       0.53741      2.36670      1.42878         0.319249     -1.818018     -0.618596
N       0.81134      1.91683      0.47763        -1.481651      2.301022      1.779006
