  # total energy =   -19.35657917 
CRSYTAL
PRIMVEC
     6.7020160000000004    0.0000000000000000    0.0000000000000000
     0.0000000000000000    6.7020160000000004    0.0000000000000000
     0.0000000000000000    0.0000000000000000    6.7020160000000004
PRESSURE
0.777409 1.0268 0.771383 -0.706171 -0.22598 -0.180337
PRIMCOORD
4 1
H       1.51034      0.93374      0.16123         1.035466     -0.097554     -0.603516
H       0.10157      1.37851      0.49326        -1.016454      0.780661     -0.252971
H       0.80575      0.44694      1.42948        -0.147712     -2.189302      1.812971
N       0.99107      1.27385      0.95298         0.128303      1.504959     -0.956361
