  # total energy =   -19.38090935 
CRSYTAL
PRIMVEC
     6.7020160000000004    0.0000000000000000    0.0000000000000000
     0.0000000000000000    6.7020160000000004    0.0000000000000000
     0.0000000000000000    0.0000000000000000    6.7020160000000004
PRESSURE
0.216765 -0.353086 0.754227 -0.170034 -0.253116 0.178493
PRIMCOORD
4 1
H       0.00358      3.37940      5.94461        -0.361976      0.022434     -0.075309
H       0.93063      2.05161      6.44353        -0.615711      0.755148      0.431995
H       0.10874      3.02518      0.87912        -1.031537     -0.121782      1.696549
N       0.51516      2.96269      0.00000         2.008938     -0.655996     -2.053192
