  # total energy =   -19.42946921 
CRSYTAL
PRIMVEC
     6.7020160000000004    0.0000000000000000    0.0000000000000000
     0.0000000000000000    6.7020160000000004    0.0000000000000000
     0.0000000000000000    0.0000000000000000    6.7020160000000004
PRESSURE
0.606701 0.811649 0.57901 -0.564995 -0.155249 -0.151866
PRIMCOORD
4 1
H       1.53418      0.96746      0.15784         0.784471     -0.111014     -0.376039
H       0.09172      1.39663      0.48565        -0.790086      0.562977     -0.159685
H       0.82342      0.46537      1.45790        -0.067720     -1.727019      1.409761
N       0.98458      1.28427      0.94355         0.072412      1.274369     -0.873730
