  # total energy =   -19.35102840 
CRSYTAL
PRIMVEC
     6.7020160000000004    0.0000000000000000    0.0000000000000000
     0.0000000000000000    6.7020160000000004    0.0000000000000000
     0.0000000000000000    0.0000000000000000    6.7020160000000004
PRESSURE
-0.768214 -0.775406 -1.39102 0.174225 0.728171 -0.228406
PRIMCOORD
4 1
H       6.55419      3.68727      5.18694         0.011277      0.248109      1.071671
H       0.43116      5.13856      5.68103        -0.565154     -1.384675      0.999102
H       6.07352      4.23931      0.06683         1.637015      0.029338     -1.828875
N       0.19487      4.16310      6.05735        -1.082694      1.106376     -0.241778
