  # total energy =   -19.50917859 
CRSYTAL
PRIMVEC
     6.7020160000000004    0.0000000000000000    0.0000000000000000
     0.0000000000000000    6.7020160000000004    0.0000000000000000
     0.0000000000000000    0.0000000000000000    6.7020160000000004
PRESSURE
-0.292971 -0.322365 0.218681 0.139499 -0.13052 -0.15449
PRIMCOORD
4 1
H       0.92604      2.93374      6.68473        -0.056222     -0.602009      0.178671
H       6.59925      1.64431      0.05105         0.642664      0.219156      0.133667
H       0.52539      2.26711      1.39612        -0.014893      0.071125      0.590889
N       0.78426      2.01624      0.45108        -0.571696      0.311065     -0.903070
