  # total energy =   -19.50081864 
CRSYTAL
PRIMVEC
     6.7020160000000004    0.0000000000000000    0.0000000000000000
     0.0000000000000000    6.7020160000000004    0.0000000000000000
     0.0000000000000000    0.0000000000000000    6.7020160000000004
PRESSURE
-0.272128 -0.390386 -0.567148 0.300181 0.089147 -0.01487
PRIMCOORD
4 1
H       1.59947      1.03006      0.14528        -0.277626      0.023262      0.550657
H       0.05394      1.44623      0.46879         0.340233     -0.065584      0.293659
H       0.85769      0.46272      1.54442         0.174243      0.892724     -0.810127
N       0.97198      1.30635      0.92360        -0.236473     -0.850366     -0.034766
