  # total energy =   -19.25327518 
CRSYTAL
PRIMVEC
     6.7020160000000004    0.0000000000000000    0.0000000000000000
     0.0000000000000000    6.7020160000000004    0.0000000000000000
     0.0000000000000000    0.0000000000000000    6.7020160000000004
PRESSURE
1.00672 -0.240597 0.653681 0.391958 0.110901 0.118132
PRIMCOORD
4 1
H       6.62034      3.97495      5.63215        -0.804100     -0.840277     -0.505257
H       1.20094      3.88525      6.25380         1.691426     -0.089125      0.614084
H       6.61506      3.98038      0.42471        -0.217274      0.104845      1.290316
N       0.32584      3.41381      6.40284        -0.669990      0.823781     -1.398838
