  # total energy =   -19.23142552 
CRSYTAL
PRIMVEC
     6.7020160000000004    0.0000000000000000    0.0000000000000000
     0.0000000000000000    6.7020160000000004    0.0000000000000000
     0.0000000000000000    0.0000000000000000    6.7020160000000004
PRESSURE
0.451129 0.17917 1.58143 -0.366993 0.202383 0.053598
PRIMCOORD
4 1
H       1.61045      2.04949      0.21330         0.121291      0.299437     -0.431420
H       6.65616      1.56384      0.26167        -0.853074      0.065147     -0.377291
H       0.97366      1.44202      1.60678         0.081453     -0.558691      2.837801
N       0.84197      1.62300      0.68089         0.650819      0.194749     -2.027174
