  # total energy =   -19.26683448 
CRSYTAL
PRIMVEC
     6.7020160000000004    0.0000000000000000    0.0000000000000000
     0.0000000000000000    6.7020160000000004    0.0000000000000000
     0.0000000000000000    0.0000000000000000    6.7020160000000004
PRESSURE
1.08015 0.30077 1.33 0.229106 -0.855487 0.033145
PRIMCOORD
4 1
H       6.43517      3.63431      5.47687         0.137347      0.324345     -0.399181
H       1.20165      3.99232      6.31263         1.365037      0.717411     -0.588698
H       6.52570      3.86420      0.39772        -1.890110      0.877349      2.761338
N       0.29159      3.63491      6.30762         0.388521     -1.919011     -1.775384
