  # total energy =   -19.24555767 
CRSYTAL
PRIMVEC
     6.7020160000000004    0.0000000000000000    0.0000000000000000
     0.0000000000000000    6.7020160000000004    0.0000000000000000
     0.0000000000000000    0.0000000000000000    6.7020160000000004
PRESSURE
-0.206409 -0.174111 1.10037 0.188484 -0.443624 0.22719
PRIMCOORD
4 1
H       6.67189      3.55581      5.84424         0.186190     -0.149610     -0.102844
H       1.24483      2.48050      6.48457        -0.766696      0.603971     -0.183154
H       0.11247      3.23320      0.79747        -0.875538      0.351354      2.228048
N       0.44046      3.10297      6.60688         1.454896     -0.804538     -1.943177
