  # total energy =   -19.34126963 
CRSYTAL
PRIMVEC
     6.7020160000000004    0.0000000000000000    0.0000000000000000
     0.0000000000000000    6.7020160000000004    0.0000000000000000
     0.0000000000000000    0.0000000000000000    6.7020160000000004
PRESSURE
-0.199199 -0.492011 -0.284758 -0.315266 0.015079 -0.263998
PRIMCOORD
4 1
H       6.56889      3.49578      5.31261         0.203773      0.775573      0.125329
H       0.72976      4.93906      5.97109        -0.459987     -0.570613     -0.575575
H       6.26722      4.12574      0.18932         0.172472     -0.077195     -0.619531
N       0.19196      4.07754      6.08336         0.083924     -0.128296      1.070977
