  # total energy =   -19.50573380 
CRSYTAL
PRIMVEC
     6.7020160000000004    0.0000000000000000    0.0000000000000000
     0.0000000000000000    6.7020160000000004    0.0000000000000000
     0.0000000000000000    0.0000000000000000    6.7020160000000004
PRESSURE
0.020197 -0.084442 0.487097 0.347001 -0.023761 -0.043516
PRIMCOORD
4 1
H       0.92906      2.92433      6.64588        -0.077947     -0.342437      0.390199
H       6.62984      1.63454      0.04878        -0.000326     -0.092271     -0.204366
H       0.52625      2.23726      1.38839        -0.089360      0.469314      1.108454
N       0.77755      2.03525      0.44634         0.168188     -0.034913     -1.294612
