  # total energy =   -19.29126152 
CRSYTAL
PRIMVEC
     6.7020160000000004    0.0000000000000000    0.0000000000000000
     0.0000000000000000    6.7020160000000004    0.0000000000000000
     0.0000000000000000    0.0000000000000000    6.7020160000000004
PRESSURE
-0.496237 -0.017527 -0.53331 0.186212 0.047736 -0.108682
PRIMCOORD
4 1
H       1.62670      1.97693      0.15615        -0.436466     -0.235251      0.629382
H       6.63463      1.57408      0.26800         0.643252      0.048364      0.384799
H       0.94217      1.32744      1.67850         0.131959      0.251156     -0.489581
N       0.85671      1.59137      0.70288        -0.337311     -0.063567     -0.524798
