  # total energy =   -19.41078044 
CRSYTAL
PRIMVEC
     6.7020160000000004    0.0000000000000000    0.0000000000000000
     0.0000000000000000    6.7020160000000004    0.0000000000000000
     0.0000000000000000    0.0000000000000000    6.7020160000000004
PRESSURE
-0.496328 -0.234061 0.112516 0.323154 -0.04081 0.036058
PRIMCOORD
4 1
H       0.04162      3.29479      6.20066         0.766390     -0.548708      0.128854
H       0.43753      1.73762      6.54645         0.389419      0.114031     -0.549402
H       6.69226      2.69660      0.94733         0.639543      0.358588      0.167094
N       0.64047      2.70713      0.13259        -1.796036      0.076375      0.254521
