  # total energy =   -19.22682954 
CRSYTAL
PRIMVEC
     6.7020160000000004    0.0000000000000000    0.0000000000000000
     0.0000000000000000    6.7020160000000004    0.0000000000000000
     0.0000000000000000    0.0000000000000000    6.7020160000000004
PRESSURE
0.033881 -0.071322 -1.01975 0.370654 0.107255 -0.029424
PRIMCOORD
4 1
H       1.62092      1.85482      0.13149         0.302269     -0.172549      0.612152
H       6.65770      1.59010      0.31002         0.176323     -0.054799      0.216905
H       0.91392      1.19763      1.71032         0.466708      0.584015     -1.479246
N       0.87460      1.54573      0.73252        -0.944881     -0.357403      0.651097
