  # total energy =   -19.26543295 
CRSYTAL
PRIMVEC
     6.7020160000000004    0.0000000000000000    0.0000000000000000
     0.0000000000000000    6.7020160000000004    0.0000000000000000
     0.0000000000000000    0.0000000000000000    6.7020160000000004
PRESSURE
-0.696039 -0.222534 -0.530732 0.395837 -0.203945 0.278346
PRIMCOORD
4 1
H       1.75347      1.42256      0.25133        -0.797076      0.087151     -0.226175
H       6.68093      1.61721      0.44841         0.556656     -0.372885      0.016347
H       1.03903      0.83601      1.67441        -0.728129      0.769597     -1.307002
N       0.90485      1.41674      0.81413         0.967836     -0.482889      1.515930
