  # total energy =   -19.22869809 
CRSYTAL
PRIMVEC
     6.7020160000000004    0.0000000000000000    0.0000000000000000
     0.0000000000000000    6.7020160000000004    0.0000000000000000
     0.0000000000000000    0.0000000000000000    6.7020160000000004
PRESSURE
0.709311 0.411718 1.22369 -0.394417 -0.62888 0.123189
PRIMCOORD
4 1
H       0.40068      3.90696      5.34919         0.291054     -0.000226     -1.260723
H       6.42985      5.55644      5.32389         0.005697      0.735366     -1.592790
H       6.03991      4.45978      6.37639        -1.707174     -0.668667      1.714390
N       0.03519      4.73440      5.76405         1.411199     -0.067793      1.138968
