  # total energy =   -19.28119387 
CRSYTAL
PRIMVEC
     6.7020160000000004    0.0000000000000000    0.0000000000000000
     0.0000000000000000    6.7020160000000004    0.0000000000000000
     0.0000000000000000    0.0000000000000000    6.7020160000000004
PRESSURE
-0.003975 -0.965677 -0.203472 -0.300789 -0.102865 -0.291752
PRIMCOORD
4 1
H       0.84746      3.15222      6.48499        -0.296472     -0.645387     -0.056836
H       0.32900      1.42761      6.59039         0.298797      1.377356      0.563132
H       0.60173      2.45924      1.31666        -0.224225     -0.318491     -0.146402
N       0.67012      2.30707      0.32109         0.222420     -0.413613     -0.359167
