  # total energy =   -19.23352329 
CRSYTAL
PRIMVEC
     6.7020160000000004    0.0000000000000000    0.0000000000000000
     0.0000000000000000    6.7020160000000004    0.0000000000000000
     0.0000000000000000    0.0000000000000000    6.7020160000000004
PRESSURE
0.294672 0.193094 0.335862 -0.263506 -0.260357 0.104117
PRIMCOORD
4 1
H       1.59592      2.15336      0.25908         0.021685      0.510167     -1.027773
H       6.64143      1.55496      0.23643        -0.784608      0.179263     -0.312294
H       1.01009      1.55830      1.63442        -0.820239     -0.221901      0.116812
N       0.82678      1.66154      0.64900         1.583318     -0.468553      1.221939
