  # total energy =   -19.21703869 
CRSYTAL
PRIMVEC
     6.7020160000000004    0.0000000000000000    0.0000000000000000
     0.0000000000000000    6.7020160000000004    0.0000000000000000
     0.0000000000000000    0.0000000000000000    6.7020160000000004
PRESSURE
-1.02529 -0.312542 -0.9578 0.590178 -0.208957 0.29261
PRIMCOORD
4 1
H       1.75641      1.46242      0.23840        -1.053853      0.000673      0.063747
H       6.66631      1.62272      0.43501         0.974220     -0.432440      0.205631
H       1.03507      0.85808      1.69597        -0.705928      1.071553     -1.901095
N       0.90157      1.42800      0.80594         0.785647     -0.639209      1.631705
