  # total energy =   -19.36755378 
CRSYTAL
PRIMVEC
     6.7020160000000004    0.0000000000000000    0.0000000000000000
     0.0000000000000000    6.7020160000000004    0.0000000000000000
     0.0000000000000000    0.0000000000000000    6.7020160000000004
PRESSURE
-0.666686 -1.03791 -0.130034 -0.343933 -0.03605 -0.074022
PRIMCOORD
4 1
H       6.59983      3.67811      5.20014         0.692287      1.283240      0.468505
H       0.08532      5.35794      5.59430         0.372290     -1.070835     -0.324882
H       5.93718      4.35711      6.47756         1.146779     -0.123770     -0.040656
N       0.16149      4.37554      5.95839        -2.212995     -0.089131     -0.103414
