  # total energy =   -19.44792852 
CRSYTAL
PRIMVEC
     6.7020160000000004    0.0000000000000000    0.0000000000000000
     0.0000000000000000    6.7020160000000004    0.0000000000000000
     0.0000000000000000    0.0000000000000000    6.7020160000000004
PRESSURE
-0.770481 -0.077033 -0.796971 -0.34458 0.148051 0.033278
PRIMCOORD
4 1
H       6.45574      3.77107      5.50927         0.456615      0.199984      0.293517
H       1.26093      3.95143      6.32223        -0.851372     -0.109149     -0.296520
H       6.51840      3.94623      0.49361         0.750858     -0.564273     -1.466718
N       0.30907      3.53959      6.34159        -0.355440      0.473555      1.470356
