  # total energy =   -19.39792722 
CRSYTAL
PRIMVEC
     6.7020160000000004    0.0000000000000000    0.0000000000000000
     0.0000000000000000    6.7020160000000004    0.0000000000000000
     0.0000000000000000    0.0000000000000000    6.7020160000000004
PRESSURE
0.005274 -0.560006 0.533692 -0.124084 -0.534963 -0.168025
PRIMCOORD
4 1
H       6.63835      3.25182      6.05626         0.541519      0.166417      0.108343
H       0.55502      1.84412      6.47830         0.550597      1.078524      0.174234
H       6.66726      2.80257      0.83653        -0.597824      0.252904      1.470194
N       0.59397      2.86787      0.06400        -0.493733     -1.498104     -1.753032
