  # total energy =   -19.40586129 
CRSYTAL
PRIMVEC
     6.7020160000000004    0.0000000000000000    0.0000000000000000
     0.0000000000000000    6.7020160000000004    0.0000000000000000
     0.0000000000000000    0.0000000000000000    6.7020160000000004
PRESSURE
0.673629 0.913251 0.663021 -0.628661 -0.17969 -0.157337
PRIMCOORD
4 1
H       1.52771      0.95957      0.15910         0.872114     -0.117207     -0.460150
H       0.09488      1.39174      0.48765        -0.879614      0.626017     -0.198190
H       0.81934      0.46284      1.44967        -0.104051     -1.952901      1.587088
N       0.98611      1.28170      0.94584         0.110875      1.443277     -0.928488
