  # total energy =   -19.33141682 
CRSYTAL
PRIMVEC
     6.7020160000000004    0.0000000000000000    0.0000000000000000
     0.0000000000000000    6.7020160000000004    0.0000000000000000
     0.0000000000000000    0.0000000000000000    6.7020160000000004
PRESSURE
0.121404 -0.754397 -0.031088 0.03887 -0.085713 -0.073988
PRIMCOORD
4 1
H       0.56627      3.28391      6.30319        -0.210497     -0.507024      0.452098
H       0.50481      1.54216      6.54368        -0.072486      1.077053      0.356267
H       0.43138      2.60601      1.20257        -0.333823      0.179411      0.404031
N       0.63265      2.48766      0.23489         0.616485     -0.749361     -1.212521
