  # total energy =   -19.41668120 
CRSYTAL
PRIMVEC
     6.7020160000000004    0.0000000000000000    0.0000000000000000
     0.0000000000000000    6.7020160000000004    0.0000000000000000
     0.0000000000000000    0.0000000000000000    6.7020160000000004
PRESSURE
0.221958 0.136149 -0.236663 0.267488 -0.333703 0.151741
PRIMCOORD
4 1
H       6.52541      3.77544      5.17543         0.168333     -0.616088      0.522160
H       0.26178      5.15080      5.61762         0.429751     -0.004449      0.711965
H       6.06475      4.29889      6.61088        -0.522802     -0.063020      0.569102
N       0.19510      4.20482      6.04582        -0.074249      0.685302     -1.803485
