  # total energy =   -19.21834810 
CRSYTAL
PRIMVEC
     6.7020160000000004    0.0000000000000000    0.0000000000000000
     0.0000000000000000    6.7020160000000004    0.0000000000000000
     0.0000000000000000    0.0000000000000000    6.7020160000000004
PRESSURE
-0.081044 -0.095166 -0.822386 0.314071 -0.005403 0.089529
PRIMCOORD
4 1
H       6.67561      3.52146      5.91671         0.195235     -0.558835     -0.028745
H       1.10374      2.24910      6.56875        -0.102866     -0.050251     -0.924346
H       0.13555      3.09963      0.92651         0.127751      0.183670     -1.632859
N       0.47647      3.02997      6.64032        -0.220262      0.424841      2.586481
