  # total energy =   -19.29488443 
CRSYTAL
PRIMVEC
     6.7020160000000004    0.0000000000000000    0.0000000000000000
     0.0000000000000000    6.7020160000000004    0.0000000000000000
     0.0000000000000000    0.0000000000000000    6.7020160000000004
PRESSURE
0.26363 0.15086 0.35277 0.117463 -0.056107 0.101971
PRIMCOORD
4 1
H       6.53971      3.49057      5.37187        -0.306961     -0.061890     -0.045399
H       1.11781      4.29863      6.10612         0.168370      0.334546      0.373981
H       6.40335      3.86231      0.34137        -0.418765      0.248911      0.830190
N       0.24063      3.83582      6.22123         0.557145     -0.520813     -1.159920
