  # total energy =   -19.45929400 
CRSYTAL
PRIMVEC
     6.7020160000000004    0.0000000000000000    0.0000000000000000
     0.0000000000000000    6.7020160000000004    0.0000000000000000
     0.0000000000000000    0.0000000000000000    6.7020160000000004
PRESSURE
-0.044422 -0.422796 0.090698 -0.170834 -0.429966 -0.054918
PRIMCOORD
4 1
H       6.64532      3.25618      6.02250         0.539199      0.130578      0.476776
H       0.60229      1.87401      6.44656         0.316984      0.842261      0.467026
H       6.68145      2.84536      0.86076        -0.387163      0.046827      0.840661
N       0.58395      2.88108      0.05702        -0.468107     -1.019405     -1.784716
