  # total energy =   -19.42141267 
CRSYTAL
PRIMVEC
     6.7020160000000004    0.0000000000000000    0.0000000000000000
     0.0000000000000000    6.7020160000000004    0.0000000000000000
     0.0000000000000000    0.0000000000000000    6.7020160000000004
PRESSURE
-0.775446 -1.10931 -0.401922 0.153367 0.179039 0.359615
PRIMCOORD
4 1
H       0.39168      3.99255      5.21903        -0.592040      1.350181      0.280215
H       6.24372      5.51825      5.08292         0.853714     -1.130819      0.455585
H       5.92118      4.45604      6.30407         1.046537      0.445384     -0.571801
N       0.02741      4.84164      5.73727        -1.307049     -0.664955     -0.164958
