  # total energy =   -19.23891370 
CRSYTAL
PRIMVEC
     6.7020160000000004    0.0000000000000000    0.0000000000000000
     0.0000000000000000    6.7020160000000004    0.0000000000000000
     0.0000000000000000    0.0000000000000000    6.7020160000000004
PRESSURE
0.256616 0.176389 0.358665 0.156009 -0.171509 -0.192471
PRIMCOORD
4 1
H       6.67602      3.54034      5.90388        -0.131741      0.001080     -0.751697
H       1.16208      2.36578      6.55963         0.346268     -0.356198     -0.926920
H       0.13817      3.15200      0.86431        -0.415347      0.287917      0.105026
N       0.45913      3.06381      6.62126         0.200069      0.066803      1.575152
