  # total energy =   -19.48084022 
CRSYTAL
PRIMVEC
     6.7020160000000004    0.0000000000000000    0.0000000000000000
     0.0000000000000000    6.7020160000000004    0.0000000000000000
     0.0000000000000000    0.0000000000000000    6.7020160000000004
PRESSURE
0.069426 0.250166 -0.248353 -0.329881 0.126732 0.067684
PRIMCOORD
4 1
H       0.21621      3.27340      6.22103        -0.136039      0.401533     -0.213992
H       0.50252      1.71053      6.45530        -0.227500     -0.319652      0.459326
H       0.15759      2.76306      1.07206         0.058195     -0.546165     -0.444441
N       0.63359      2.62494      0.17165         0.304823      0.465566      0.198177
