  # total energy =   -19.40382763 
CRSYTAL
PRIMVEC
     6.7020160000000004    0.0000000000000000    0.0000000000000000
     0.0000000000000000    6.7020160000000004    0.0000000000000000
     0.0000000000000000    0.0000000000000000    6.7020160000000004
PRESSURE
-0.493586 -0.53488 -1.12003 0.23952 0.326847 -0.062421
PRIMCOORD
4 1
H       6.53829      3.73213      5.16969         0.146286     -0.035249      1.122014
H       0.34767      5.15540      5.63808        -0.147585     -1.055763      1.073365
H       6.05873      4.26948      6.69992         1.052705     -0.030016     -1.025404
N       0.19573      4.18319      6.05245        -1.050393      1.120282     -1.169909
