  # total energy =   -19.43491089 
CRSYTAL
PRIMVEC
     6.7020160000000004    0.0000000000000000    0.0000000000000000
     0.0000000000000000    6.7020160000000004    0.0000000000000000
     0.0000000000000000    0.0000000000000000    6.7020160000000004
PRESSURE
0.096953 0.201068 0.369565 -0.149318 -0.020313 0.109664
PRIMCOORD
4 1
H       1.69081      1.20295      0.22070        -0.139913      0.003474     -0.447775
H       0.03697      1.54689      0.47926        -0.345346     -0.244091     -0.321678
H       0.96608      0.65143      1.58128        -0.370121     -0.517646      0.385738
N       0.93688      1.35388      0.87210         0.856334      0.757386      0.384995
