  # total energy =   -19.47545472 
CRSYTAL
PRIMVEC
     6.7020160000000004    0.0000000000000000    0.0000000000000000
     0.0000000000000000    6.7020160000000004    0.0000000000000000
     0.0000000000000000    0.0000000000000000    6.7020160000000004
PRESSURE
0.095887 0.178273 -0.730169 0.128315 0.212836 0.119879
PRIMCOORD
4 1
H       1.24600      2.57957      0.09879         0.192917      0.303841      0.480858
H       6.58654      1.72466      0.18620        -0.157467     -0.143562     -0.053217
H       0.69743      1.90542      1.59788         0.416576      0.319531     -1.124602
N       0.82674      1.78154      0.56724        -0.452955     -0.479194      0.697872
