  # total energy =   -19.34474419 
CRSYTAL
PRIMVEC
     6.7020160000000004    0.0000000000000000    0.0000000000000000
     0.0000000000000000    6.7020160000000004    0.0000000000000000
     0.0000000000000000    0.0000000000000000    6.7020160000000004
PRESSURE
0.471547 0.568196 1.02457 -0.584375 -0.044003 0.019661
PRIMCOORD
4 1
H       1.69840      1.24028      0.24154         0.224785      0.036076     -0.874890
H       0.04002      1.56076      0.48287        -0.838004     -0.109016     -0.561660
H       0.98534      0.70744      1.57092        -0.364737     -1.562007      1.641896
N       0.93004      1.36339      0.86198         0.978470      1.634020     -0.204613
