  # total energy =   -19.25203672 
CRSYTAL
PRIMVEC
     6.7020160000000004    0.0000000000000000    0.0000000000000000
     0.0000000000000000    6.7020160000000004    0.0000000000000000
     0.0000000000000000    0.0000000000000000    6.7020160000000004
PRESSURE
-0.016652 -1.32812 0.060676 -0.194766 -0.118034 -0.37354
PRIMCOORD
4 1
H       0.82936      3.17908      6.46908        -0.359702     -1.035274      0.169227
H       0.34491      1.42235      6.58742         0.393600      1.744391      0.652046
H       0.59119      2.47166      1.29516        -0.254057     -0.189524      0.519055
N       0.66575      2.32390      0.31376         0.220816     -0.519197     -1.339337
