  # total energy =   -19.24921391 
CRSYTAL
PRIMVEC
     6.7020160000000004    0.0000000000000000    0.0000000000000000
     0.0000000000000000    6.7020160000000004    0.0000000000000000
     0.0000000000000000    0.0000000000000000    6.7020160000000004
PRESSURE
-1.11138 -0.01088 -1.06968 -0.153609 0.413734 -0.207914
PRIMCOORD
4 1
H       6.44940      3.53553      5.41199         0.430941      0.350490      0.445347
H       1.22974      4.10932      6.22397        -1.201194     -0.215247     -0.021799
H       6.40676      3.83954      0.45359         1.229728      0.002812     -1.818885
N       0.27162      3.72819      6.26535        -0.459104     -0.137333      1.396172
