  # total energy =   -19.39675695 
CRSYTAL
PRIMVEC
     6.7020160000000004    0.0000000000000000    0.0000000000000000
     0.0000000000000000    6.7020160000000004    0.0000000000000000
     0.0000000000000000    0.0000000000000000    6.7020160000000004
PRESSURE
-0.852453 -1.0723 -0.269205 0.299165 0.223036 0.273478
PRIMCOORD
4 1
H       0.39156      3.98166      5.24796        -0.459793      1.089218     -0.124988
H       6.25267      5.53475      5.11422         0.869274     -1.232904      0.255531
H       5.91867      4.44942      6.31794         1.279039      0.571590     -0.729835
N       0.03006      4.83039      5.73797        -1.687705     -0.428051      0.598687
