  # total energy =   -19.20372733 
CRSYTAL
PRIMVEC
     6.7020160000000004    0.0000000000000000    0.0000000000000000
     0.0000000000000000    6.7020160000000004    0.0000000000000000
     0.0000000000000000    0.0000000000000000    6.7020160000000004
PRESSURE
0.727906 0.224109 1.60386 -0.391269 0.134779 0.154148
PRIMCOORD
4 1
H       1.60233      2.08904      0.23889         0.322855      0.542196     -0.880385
H       6.65898      1.55961      0.25514        -1.319357      0.057344     -0.597371
H       0.99075      1.49398      1.60234        -0.168528     -0.507344      2.574536
N       0.83499      1.63919      0.66795         1.164992     -0.093203     -1.095622
