  # total energy =   -19.30833950 
CRSYTAL
PRIMVEC
     6.7020160000000004    0.0000000000000000    0.0000000000000000
     0.0000000000000000    6.7020160000000004    0.0000000000000000
     0.0000000000000000    0.0000000000000000    6.7020160000000004
PRESSURE
0.103504 0.340756 0.116973 0.175826 0.065684 0.06168
PRIMCOORD
4 1
H       0.68753      3.24598      6.39245        -0.176530      0.024397     -0.311528
H       0.46666      1.52278      6.60598        -0.300367     -0.694878     -0.670346
H       0.50195      2.54546      1.25032        -0.083920      0.096696     -0.174473
N       0.64107      2.42529      0.25820         0.560301      0.574958      1.154615
