  # total energy =   -19.33333268 
CRSYTAL
PRIMVEC
     6.7020160000000004    0.0000000000000000    0.0000000000000000
     0.0000000000000000    6.7020160000000004    0.0000000000000000
     0.0000000000000000    0.0000000000000000    6.7020160000000004
PRESSURE
0.007115 -0.358812 0.424048 0.114286 -0.123006 -0.193516
PRIMCOORD
4 1
H       0.91773      3.03262      6.49548        -0.299319     -0.360386      0.475594
H       0.19392      1.46620      6.60929         0.112751      0.550012      0.424155
H       0.61285      2.33084      1.33875        -0.363727      0.269848      1.336323
N       0.70178      2.22045      0.37128         0.549750     -0.460840     -2.236449
