  # total energy =   -19.41530282 
CRSYTAL
PRIMVEC
     6.7020160000000004    0.0000000000000000    0.0000000000000000
     0.0000000000000000    6.7020160000000004    0.0000000000000000
     0.0000000000000000    0.0000000000000000    6.7020160000000004
PRESSURE
0.10505 0.341853 -0.606106 0.096657 0.028981 0.171789
PRIMCOORD
4 1
H       0.33357      3.28918      6.21918        -0.010773     -0.219190      0.604649
H       0.52080      1.68512      6.46912        -0.393293     -0.981637      0.164591
H       0.25603      2.72978      1.13475        -0.129286     -0.411573     -0.682270
N       0.63115      2.57590      0.19395         0.532101      1.611801     -0.086634
