  # total energy =   -19.34668199 
CRSYTAL
PRIMVEC
     6.7020160000000004    0.0000000000000000    0.0000000000000000
     0.0000000000000000    6.7020160000000004    0.0000000000000000
     0.0000000000000000    0.0000000000000000    6.7020160000000004
PRESSURE
1.00802 0.318712 0.967326 0.132181 -0.581033 0.092598
PRIMCOORD
4 1
H       6.43945      3.67636      5.49537         0.062283      0.368427     -0.513790
H       1.20561      3.96644      6.32742         1.477968      0.767002     -0.616068
H       6.53629      3.88783      0.41827        -1.311165      0.680539      1.765221
N       0.29842      3.60225      6.31959        -0.228126     -1.817538     -0.635951
