  # total energy =   -19.43194791 
CRSYTAL
PRIMVEC
     6.7020160000000004    0.0000000000000000    0.0000000000000000
     0.0000000000000000    6.7020160000000004    0.0000000000000000
     0.0000000000000000    0.0000000000000000    6.7020160000000004
PRESSURE
-0.039541 0.428169 -0.898414 -0.278235 0.340809 -0.077965
PRIMCOORD
4 1
H       6.69030      3.28080      5.96619        -0.251338      0.441639      0.343675
H       0.74797      1.98453      6.39580         0.076711     -0.701250      0.637643
H       0.01605      2.95730      0.93420         0.522703     -0.467508     -1.324374
N       0.55340      2.91563      0.03174        -0.347747      0.728728      0.343801
