  # total energy =   -19.47749962 
CRSYTAL
PRIMVEC
     6.7020160000000004    0.0000000000000000    0.0000000000000000
     0.0000000000000000    6.7020160000000004    0.0000000000000000
     0.0000000000000000    0.0000000000000000    6.7020160000000004
PRESSURE
-0.086403 -0.304055 -0.169097 -0.185503 -0.312619 -0.019845
PRIMCOORD
4 1
H       6.65046      3.25868      6.00824         0.489081      0.140291      0.599771
H       0.62553      1.89101      6.43326         0.222986      0.634281      0.565965
H       6.68655      2.86556      0.87538        -0.182541     -0.049115      0.391716
N       0.57917      2.88696      0.05332        -0.528883     -0.724658     -1.557544
