  # total energy =   -19.23303640 
CRSYTAL
PRIMVEC
     6.7020160000000004    0.0000000000000000    0.0000000000000000
     0.0000000000000000    6.7020160000000004    0.0000000000000000
     0.0000000000000000    0.0000000000000000    6.7020160000000004
PRESSURE
-1.28088 -0.501239 -0.254998 -0.055171 0.0551 0.289949
PRIMCOORD
4 1
H       6.51662      3.74326      5.18646         0.748793      0.195491      0.371418
H       0.08214      5.27501      5.60223         0.821116     -0.810943      0.124836
H       5.90828      4.37203      6.49904         2.075727     -0.535804     -0.263329
N       0.19140      4.29655      5.99925        -3.645313      1.151600     -0.232942
