  # total energy =   -19.27649019 
CRSYTAL
PRIMVEC
     6.7020160000000004    0.0000000000000000    0.0000000000000000
     0.0000000000000000    6.7020160000000004    0.0000000000000000
     0.0000000000000000    0.0000000000000000    6.7020160000000004
PRESSURE
-0.491422 -0.874087 -1.53195 0.15148 0.858981 -0.189412
PRIMCOORD
4 1
H       0.20841      3.77095      5.14037        -0.629486      0.785602      1.407224
H       0.14949      5.42438      5.39907        -0.676481     -1.055188      1.092565
H       6.01683      4.33304      6.60437         1.137538      0.499656     -1.804311
N       0.09235      4.49992      5.89650         0.168460     -0.229062     -0.694572
