  # total energy =   -19.28202600 
CRSYTAL
PRIMVEC
     6.7020160000000004    0.0000000000000000    0.0000000000000000
     0.0000000000000000    6.7020160000000004    0.0000000000000000
     0.0000000000000000    0.0000000000000000    6.7020160000000004
PRESSURE
0.078504 -0.211632 -1.02068 -0.129043 0.353853 0.028126
PRIMCOORD
4 1
H       0.28197      3.82172      5.13465        -0.806421      0.425214      1.546593
H       0.12690      5.41899      5.36293        -0.667052     -0.086051      0.891033
H       6.07078      4.36571      6.57828        -0.393011      0.044834     -0.445237
N       0.07371      4.53509      5.87976         1.866017     -0.384263     -1.992010
