  # total energy =   -19.48183024 
CRSYTAL
PRIMVEC
     6.7020160000000004    0.0000000000000000    0.0000000000000000
     0.0000000000000000    6.7020160000000004    0.0000000000000000
     0.0000000000000000    0.0000000000000000    6.7020160000000004
PRESSURE
0.38497 0.237129 -0.278515 0.12154 0.250026 0.146978
PRIMCOORD
4 1
H       1.27260      2.55193      0.10678         0.240114      0.449058      0.340066
H       6.60113      1.71096      0.19295        -0.696482     -0.120248     -0.287711
H       0.71934      1.88023      1.58794         0.311183      0.386305     -0.456156
N       0.82504      1.77604      0.57234         0.143588     -0.714068      0.405199
