  # total energy =   -19.45820451 
CRSYTAL
PRIMVEC
     6.7020160000000004    0.0000000000000000    0.0000000000000000
     0.0000000000000000    6.7020160000000004    0.0000000000000000
     0.0000000000000000    0.0000000000000000    6.7020160000000004
PRESSURE
0.322209 0.38388 0.205115 0.359921 0.227425 0.18753
PRIMCOORD
4 1
H       0.93234      2.90288      6.59108        -0.018391      0.427106      0.430123
H       6.67674      1.61261      0.03695        -0.757268     -0.555125     -0.575104
H       0.52612      2.20080      1.40322         0.117708      0.710466      0.422946
N       0.76678      2.06722      0.43612         0.658352     -0.581515     -0.278253
