  # total energy =   -19.36739843 
CRSYTAL
PRIMVEC
     6.7020160000000004    0.0000000000000000    0.0000000000000000
     0.0000000000000000    6.7020160000000004    0.0000000000000000
     0.0000000000000000    0.0000000000000000    6.7020160000000004
PRESSURE
0.236183 -0.108384 0.344619 -0.209118 -0.317615 -0.051471
PRIMCOORD
4 1
H       6.57307      3.51585      5.31292         0.059234      0.489839     -0.200156
H       0.69413      4.94755      5.95100        -0.045401      0.069209     -0.627801
H       6.27312      4.13585      0.15215        -0.711174     -0.015891      0.538156
N       0.19016      4.08800      6.08042         0.697620     -0.543444      0.290589
