  # total energy =   -19.17356876 
CRSYTAL
PRIMVEC
     6.7020160000000004    0.0000000000000000    0.0000000000000000
     0.0000000000000000    6.7020160000000004    0.0000000000000000
     0.0000000000000000    0.0000000000000000    6.7020160000000004
PRESSURE
-0.841294 -0.964663 -1.20324 -0.439702 0.490739 -0.591051
PRIMCOORD
4 1
H       6.56345      3.46452      5.31537         0.371431      1.066033      0.501595
H       0.80106      4.90694      6.00715        -1.129067     -1.416172     -0.507849
H       6.26028      4.10109      0.25846         1.287791     -0.139512     -2.203003
N       0.19603      4.05361      6.09167        -0.530429      0.489410      2.209176
