  # total energy =   -19.35822826 
CRSYTAL
PRIMVEC
     6.7020160000000004    0.0000000000000000    0.0000000000000000
     0.0000000000000000    6.7020160000000004    0.0000000000000000
     0.0000000000000000    0.0000000000000000    6.7020160000000004
PRESSURE
-0.634854 -0.066468 0.075372 0.42474 0.073376 0.000224
PRIMCOORD
4 1
H       0.02378      3.29272      6.19864         0.792896     -0.511261      0.069762
H       0.43125      1.75112      6.56165         0.440611     -0.197310     -0.782138
H       6.66811      2.68631      0.93774         0.928315      0.522320     -0.028487
N       0.64068      2.71885      0.12607        -2.162232      0.186397      0.741744
