  # total energy =   -19.27408544 
CRSYTAL
PRIMVEC
     6.7020160000000004    0.0000000000000000    0.0000000000000000
     0.0000000000000000    6.7020160000000004    0.0000000000000000
     0.0000000000000000    0.0000000000000000    6.7020160000000004
PRESSURE
0.12436 0.594107 0.879158 0.238385 -0.212417 -0.298866
PRIMCOORD
4 1
H       0.38092      3.96141      5.35000         0.823886     -1.250693     -1.963828
H       6.34211      5.54984      5.26051         0.155160      0.171763     -1.350858
H       5.97945      4.45089      6.34566         0.022907      0.067901      0.320833
N       0.03507      4.77592      5.74725        -1.001062      1.010884      2.994214
