  # total energy =   -19.30221977 
CRSYTAL
PRIMVEC
     6.7020160000000004    0.0000000000000000    0.0000000000000000
     0.0000000000000000    6.7020160000000004    0.0000000000000000
     0.0000000000000000    0.0000000000000000    6.7020160000000004
PRESSURE
-0.409645 0.007905 -0.262299 0.106144 0.062275 -0.099529
PRIMCOORD
4 1
H       1.62535      1.98559      0.16230        -0.397268     -0.189495      0.525969
H       6.63687      1.57274      0.26700         0.501411      0.057777      0.309726
H       0.94563      1.34113      1.66831         0.122197      0.129649     -0.063974
N       0.85497      1.59507      0.70048        -0.225112      0.002616     -0.771941
