  # total energy =   -19.39395990 
CRSYTAL
PRIMVEC
     6.7020160000000004    0.0000000000000000    0.0000000000000000
     0.0000000000000000    6.7020160000000004    0.0000000000000000
     0.0000000000000000    0.0000000000000000    6.7020160000000004
PRESSURE
0.177231 0.035058 1.15139 0.056013 0.1555 -0.097117
PRIMCOORD
4 1
H       1.41777      2.43977      0.16203        -0.374761      0.016653      0.019580
H       6.61378      1.63745      0.20093        -0.615264      0.222342     -0.250235
H       0.84206      1.77842      1.56461        -0.120681      0.208919      2.160135
N       0.81912      1.74499      0.59686         1.110687     -0.448264     -1.929547
