  # total energy =   -19.25176856 
CRSYTAL
PRIMVEC
     6.7020160000000004    0.0000000000000000    0.0000000000000000
     0.0000000000000000    6.7020160000000004    0.0000000000000000
     0.0000000000000000    0.0000000000000000    6.7020160000000004
PRESSURE
0.437072 0.010693 -0.364413 0.139299 0.15457 -0.01327
PRIMCOORD
4 1
H       1.61923      1.82436      0.13886         0.639543     -0.074766      0.346830
H       6.67204      1.59285      0.32559        -0.382053     -0.024510     -0.054910
H       0.91384      1.18074      1.68811         0.543328      0.220839     -0.515219
N       0.87739      1.53546      0.73960        -0.800907     -0.121769      0.224240
