  # total energy =   -19.48303004 
CRSYTAL
PRIMVEC
     6.7020160000000004    0.0000000000000000    0.0000000000000000
     0.0000000000000000    6.7020160000000004    0.0000000000000000
     0.0000000000000000    0.0000000000000000    6.7020160000000004
PRESSURE
-0.22564 -0.055178 -0.134237 0.244321 0.307519 -0.1765
PRIMCOORD
4 1
H       0.09647      3.74402      5.20381        -0.092215     -0.171159     -0.350975
H       0.14389      5.38408      5.48823        -0.342538     -0.170087      0.116843
H       6.00844      4.31985      6.55179         0.582790      0.412559     -0.719394
N       0.11420      4.45871      5.91425        -0.147150     -0.070915      0.952968
