  # total energy =   -19.22825116 
CRSYTAL
PRIMVEC
     6.7020160000000004    0.0000000000000000    0.0000000000000000
     0.0000000000000000    6.7020160000000004    0.0000000000000000
     0.0000000000000000    0.0000000000000000    6.7020160000000004
PRESSURE
0.249058 0.204442 0.017255 0.169273 -0.08978 -0.211349
PRIMCOORD
4 1
H       6.67618      3.53772      5.90941        -0.113243     -0.060685     -0.695035
H       1.14873      2.34572      6.56704         0.426416     -0.472708     -0.984720
H       0.13815      3.14052      0.88200        -0.231958      0.258242     -0.521113
N       0.46258      3.05708      6.62393        -0.081494      0.274229      2.201623
