  # total energy =   -19.31945710 
CRSYTAL
PRIMVEC
     6.7020160000000004    0.0000000000000000    0.0000000000000000
     0.0000000000000000    6.7020160000000004    0.0000000000000000
     0.0000000000000000    0.0000000000000000    6.7020160000000004
PRESSURE
-0.461479 -0.893732 -0.7861 0.27102 0.5866 0.098471
PRIMCOORD
4 1
H       0.42483      3.87142      5.25639        -0.594752      0.550865      0.289134
H       6.62352      5.56072      5.32104        -0.056327     -1.296294      0.440487
H       6.03919      4.42631      6.55341         1.012792      0.250189     -1.502540
N       0.04433      4.64899      5.80593        -0.361703      0.495149      0.774005
