  # total energy =   -19.23102600 
CRSYTAL
PRIMVEC
     6.7020160000000004    0.0000000000000000    0.0000000000000000
     0.0000000000000000    6.7020160000000004    0.0000000000000000
     0.0000000000000000    0.0000000000000000    6.7020160000000004
PRESSURE
-0.33226 -0.323449 0.719725 0.131499 -0.04989 -0.493376
PRIMCOORD
4 1
H       6.63929      3.24881      6.13415         0.279371      0.360937     -0.728048
H       0.46559      1.80995      6.55442         0.975661      0.642971     -0.652917
H       6.61737      2.71358      0.82995         0.404503      0.831263      0.977828
N       0.61606      2.83240      0.07706        -1.659436     -1.834191      0.403355
