  # total energy =   -19.30767302 
CRSYTAL
PRIMVEC
     6.7020160000000004    0.0000000000000000    0.0000000000000000
     0.0000000000000000    6.7020160000000004    0.0000000000000000
     0.0000000000000000    0.0000000000000000    6.7020160000000004
PRESSURE
-0.136006 0.293259 0.667521 0.359993 -0.077341 -0.25212
PRIMCOORD
4 1
H       0.38089      3.96765      5.33914         0.667560     -1.007627     -1.797081
H       6.32198      5.55096      5.23691         0.316404     -0.222420     -1.061929
H       5.96250      4.44795      6.34276         0.492586      0.268540     -0.058399
N       0.03489      4.78595      5.74444        -1.476356      0.960712      2.918394
