  # total energy =   -19.27562517 
CRSYTAL
PRIMVEC
     6.7020160000000004    0.0000000000000000    0.0000000000000000
     0.0000000000000000    6.7020160000000004    0.0000000000000000
     0.0000000000000000    0.0000000000000000    6.7020160000000004
PRESSURE
0.435066 0.227875 0.672927 0.022468 0.111731 -0.237131
PRIMCOORD
4 1
H       6.68199      3.58016      5.73817        -0.545681      0.485114     -0.249511
H       1.32434      2.88198      6.35751         0.582597     -0.071982      0.630636
H       0.05437      3.44304      0.73033        -0.136348      0.483476      1.374583
N       0.39994      3.19706      6.55435         0.099430     -0.896580     -1.755448
