  # total energy =   -19.45886347 
CRSYTAL
PRIMVEC
     6.7020160000000004    0.0000000000000000    0.0000000000000000
     0.0000000000000000    6.7020160000000004    0.0000000000000000
     0.0000000000000000    0.0000000000000000    6.7020160000000004
PRESSURE
0.431994 0.189359 0.510907 0.090152 -0.437498 -0.124404
PRIMCOORD
4 1
H       6.60959      3.79409      5.71576         0.138025      0.231512     -0.281840
H       1.34837      3.44160      6.46793         0.693033     -0.039336     -0.749004
H       0.12676      3.76421      0.61384        -0.846712      0.404363      0.895695
N       0.35296      3.28384      6.46886         0.015032     -0.596273      0.135021
