  # total energy =   -19.27599061 
CRSYTAL
PRIMVEC
     6.7020160000000004    0.0000000000000000    0.0000000000000000
     0.0000000000000000    6.7020160000000004    0.0000000000000000
     0.0000000000000000    0.0000000000000000    6.7020160000000004
PRESSURE
0.96121 0.274388 1.24442 0.203878 -0.836829 0.018224
PRIMCOORD
4 1
H       6.43443      3.62582      5.47202         0.175457      0.319736     -0.330767
H       1.20356      3.99934      6.30831         1.179119      0.651599     -0.567519
H       6.52001      3.86071      0.39819        -1.794335      0.812288      2.617578
N       0.29015      3.64171      6.30481         0.440347     -1.783159     -1.721278
