  # total energy =   -19.16708331 
CRSYTAL
PRIMVEC
     6.7020160000000004    0.0000000000000000    0.0000000000000000
     0.0000000000000000    6.7020160000000004    0.0000000000000000
     0.0000000000000000    0.0000000000000000    6.7020160000000004
PRESSURE
1.01312 0.360169 1.56783 -0.685594 0.259547 -0.089681
PRIMCOORD
4 1
H       1.64142      1.71719      0.17117         0.975297      0.004902     -0.211842
H       6.69720      1.60280      0.37206        -1.299973      0.114535     -0.558832
H       0.93428      1.11650      1.62389         0.646360     -1.432703      3.033367
N       0.88535      1.50023      0.76337        -0.322644      1.314169     -2.261901
