  # total energy =   -19.48053104 
CRSYTAL
PRIMVEC
     6.7020160000000004    0.0000000000000000    0.0000000000000000
     0.0000000000000000    6.7020160000000004    0.0000000000000000
     0.0000000000000000    0.0000000000000000    6.7020160000000004
PRESSURE
-0.141791 -0.014986 -0.628291 -0.209334 -0.039601 0.003975
PRIMCOORD
4 1
H       6.66303      3.26429      5.98644         0.303521      0.209121      0.691720
H       0.66944      1.92590      6.41296         0.106009      0.114295      0.664465
H       6.69513      2.90196      0.90374         0.223155     -0.228799     -0.490538
N       0.57015      2.89741      0.04584        -0.632098     -0.094217     -0.866011
