  # total energy =   -19.37508016 
CRSYTAL
PRIMVEC
     6.7020160000000004    0.0000000000000000    0.0000000000000000
     0.0000000000000000    6.7020160000000004    0.0000000000000000
     0.0000000000000000    0.0000000000000000    6.7020160000000004
PRESSURE
0.881628 0.297851 0.789114 0.077524 -0.486898 0.098946
PRIMCOORD
4 1
H       6.44033      3.68446      5.49778         0.073816      0.375476     -0.488108
H       1.20896      3.96318      6.32899         1.340913      0.721161     -0.607048
H       6.53550      3.89339      0.42567        -1.069625      0.556927      1.362978
N       0.29963      3.59620      6.32159        -0.344047     -1.654998     -0.268396
