  # total energy =   -19.20285724 
CRSYTAL
PRIMVEC
     6.7020160000000004    0.0000000000000000    0.0000000000000000
     0.0000000000000000    6.7020160000000004    0.0000000000000000
     0.0000000000000000    0.0000000000000000    6.7020160000000004
PRESSURE
0.698459 0.217477 1.69499 -0.401304 0.170967 0.134784
PRIMCOORD
4 1
H       1.60409      2.07890      0.23324         0.298158      0.496715     -0.791455
H       6.65936      1.56060      0.25723        -1.260758      0.055336     -0.572108
H       0.98658      1.48171      1.60083        -0.080296     -0.547291      2.816430
N       0.83664      1.63520      0.67124         1.042961     -0.005473     -1.451370
