  # total energy =   -19.49811517 
CRSYTAL
PRIMVEC
     6.7020160000000004    0.0000000000000000    0.0000000000000000
     0.0000000000000000    6.7020160000000004    0.0000000000000000
     0.0000000000000000    0.0000000000000000    6.7020160000000004
PRESSURE
0.079833 -0.099801 -0.024664 -0.35456 -0.026492 0.034016
PRIMCOORD
4 1
H       0.18734      3.27676      6.21961        -0.024320      0.238238     -0.192433
H       0.49270      1.70276      6.45852        -0.101500      0.299701      0.594355
H       0.13727      2.75960      1.04513        -0.122855     -0.442700      0.097819
N       0.63460      2.63719      0.16724         0.248299     -0.093903     -0.500192
