  # total energy =   -19.34176758 
CRSYTAL
PRIMVEC
     6.7020160000000004    0.0000000000000000    0.0000000000000000
     0.0000000000000000    6.7020160000000004    0.0000000000000000
     0.0000000000000000    0.0000000000000000    6.7020160000000004
PRESSURE
0.113328 -0.026237 0.439915 0.105558 -0.042198 -0.000671
PRIMCOORD
4 1
H       0.91044      3.04267      6.50149        -0.210376     -0.107827      0.166198
H       0.22505      1.47209      6.61121        -0.268482     -0.029088      0.078344
H       0.61782      2.35299      1.33669        -0.329063      0.126878      1.007510
N       0.69585      2.23188      0.36336         0.808091      0.009474     -1.252593
