  # total energy =   -19.42666339 
CRSYTAL
PRIMVEC
     6.7020160000000004    0.0000000000000000    0.0000000000000000
     0.0000000000000000    6.7020160000000004    0.0000000000000000
     0.0000000000000000    0.0000000000000000    6.7020160000000004
PRESSURE
-0.074644 -0.159825 0.631489 0.206346 -0.16494 -0.265682
PRIMCOORD
4 1
H       6.63704      3.89222      5.71693        -0.137919     -0.342285     -0.366916
H       1.33896      3.61364      6.39862        -0.342468     -0.607411     -0.150762
H       0.07470      3.86563      0.54273        -0.545119      0.126729      1.155096
N       0.34285      3.30297      6.45458         1.026117      0.822866     -0.637500
