  # total energy =   -19.27201034 
CRSYTAL
PRIMVEC
     6.7020160000000004    0.0000000000000000    0.0000000000000000
     0.0000000000000000    6.7020160000000004    0.0000000000000000
     0.0000000000000000    0.0000000000000000    6.7020160000000004
PRESSURE
-0.011488 -1.10265 -0.126373 -0.271354 -0.109087 -0.326452
PRIMCOORD
4 1
H       0.84199      3.16112      6.47998        -0.321841     -0.785957      0.022542
H       0.33377      1.42503      6.58909         0.342493      1.524755      0.607113
H       0.59857      2.46328      1.30985        -0.232874     -0.279974      0.061296
N       0.66874      2.31236      0.31883         0.212863     -0.458742     -0.690141
