  # total energy =   -19.26960823 
CRSYTAL
PRIMVEC
     6.7020160000000004    0.0000000000000000    0.0000000000000000
     0.0000000000000000    6.7020160000000004    0.0000000000000000
     0.0000000000000000    0.0000000000000000    6.7020160000000004
PRESSURE
-0.213704 -0.429095 0.760586 0.058792 -0.200873 -0.433454
PRIMCOORD
4 1
H       6.63745      3.24826      6.11878         0.333537      0.328568     -0.598072
H       0.48184      1.81358      6.53893         0.918880      0.839316     -0.477549
H       6.62901      2.73079      0.82568         0.079349      0.701540      1.230361
N       0.61150      2.84078      0.07435        -1.331565     -1.869125     -0.154198
