  # total energy =   -19.28488072 
CRSYTAL
PRIMVEC
     6.7020160000000004    0.0000000000000000    0.0000000000000000
     0.0000000000000000    6.7020160000000004    0.0000000000000000
     0.0000000000000000    0.0000000000000000    6.7020160000000004
PRESSURE
-0.498985 -0.104611 -0.822313 -0.046784 0.388424 -0.190845
PRIMCOORD
4 1
H       6.57420      3.45945      5.33605        -0.042708      0.246939      0.498532
H       1.04467      4.51048      6.06508        -0.688179     -0.275515      0.250440
H       6.36041      3.93351      0.34257         0.713587      0.099690     -1.250270
N       0.21845      3.92000      6.17245         0.018456     -0.071068      0.502161
