  # total energy =   -19.28222912 
CRSYTAL
PRIMVEC
     6.7020160000000004    0.0000000000000000    0.0000000000000000
     0.0000000000000000    6.7020160000000004    0.0000000000000000
     0.0000000000000000    0.0000000000000000    6.7020160000000004
PRESSURE
-0.403183 -0.295866 -0.523302 -0.146889 0.279567 -0.230643
PRIMCOORD
4 1
H       6.57211      3.45433      5.34729         0.073696      0.313984     -0.196779
H       0.89337      4.75311      6.05687        -0.573739     -0.567993     -0.460837
H       6.32084      4.03764      0.28088         0.637285     -0.084386     -1.342977
N       0.20303      4.00216      6.12014        -0.136673      0.338629      1.999841
