  # total energy =   -19.33800232 
CRSYTAL
PRIMVEC
     6.7020160000000004    0.0000000000000000    0.0000000000000000
     0.0000000000000000    6.7020160000000004    0.0000000000000000
     0.0000000000000000    0.0000000000000000    6.7020160000000004
PRESSURE
0.110297 -0.540413 -0.087932 -4.3e-05 -0.029974 -0.066802
PRIMCOORD
4 1
H       0.58361      3.27693      6.31671        -0.226968     -0.274957      0.225138
H       0.50248      1.53961      6.55409        -0.088971      0.847404      0.202170
H       0.44112      2.59733      1.21382        -0.237705      0.156937      0.076828
N       0.63324      2.48037      0.23694         0.553741     -0.729405     -0.503931
