  # total energy =   -19.26207782 
CRSYTAL
PRIMVEC
     6.7020160000000004    0.0000000000000000    0.0000000000000000
     0.0000000000000000    6.7020160000000004    0.0000000000000000
     0.0000000000000000    0.0000000000000000    6.7020160000000004
PRESSURE
-0.015641 -1.2246 -0.03731 -0.235709 -0.114131 -0.353973
PRIMCOORD
4 1
H       0.83596      3.17011      6.47466        -0.343115     -0.917220      0.098644
H       0.33907      1.42324      6.58809         0.374236      1.648116      0.637102
H       0.59506      2.46742      1.30263        -0.242862     -0.236667      0.285356
N       0.66729      2.31797      0.31639         0.212478     -0.494090     -1.020112
