  # total energy =   -19.31275102 
CRSYTAL
PRIMVEC
     6.7020160000000004    0.0000000000000000    0.0000000000000000
     0.0000000000000000    6.7020160000000004    0.0000000000000000
     0.0000000000000000    0.0000000000000000    6.7020160000000004
PRESSURE
-0.081559 0.230891 0.966884 0.262655 -0.119013 -0.084773
PRIMCOORD
4 1
H       6.65788      3.61055      5.72124        -0.228506      0.351441     -0.020757
H       1.36755      2.98580      6.38423        -0.427406      0.295440      0.447019
H       0.08017      3.49719      0.70130        -0.546860      0.951707      2.180384
N       0.38701      3.21905      6.53692         1.202421     -1.599489     -2.606436
