  # total energy =   -19.48530798 
CRSYTAL
PRIMVEC
     6.7020160000000004    0.0000000000000000    0.0000000000000000
     0.0000000000000000    6.7020160000000004    0.0000000000000000
     0.0000000000000000    0.0000000000000000    6.7020160000000004
PRESSURE
-0.008414 0.072012 -0.012321 0.103546 0.237806 -0.002364
PRIMCOORD
4 1
H       6.57918      3.61899      5.26312        -0.366337     -0.150972     -0.398738
H       0.54799      5.04391      5.80286        -0.226322      0.048354      0.013452
H       6.17923      4.18871      0.09535         0.131851      0.112950     -0.458056
N       0.19000      4.13159      6.06595         0.461253     -0.009239      0.844506
