  # total energy =   -19.33431299 
CRSYTAL
PRIMVEC
     6.7020160000000004    0.0000000000000000    0.0000000000000000
     0.0000000000000000    6.7020160000000004    0.0000000000000000
     0.0000000000000000    0.0000000000000000    6.7020160000000004
PRESSURE
-0.730931 -0.650148 -0.43009 -0.573806 -0.180859 -0.048403
PRIMCOORD
4 1
H       0.91702      2.93491      0.09048         0.197821     -0.677730     -0.622441
H       6.54737      1.68152      0.06598         1.395551      0.370522      0.529009
H       0.52487      2.34240      1.42839         0.297171     -1.224996     -0.861499
N       0.80025      1.96576      0.46247        -1.890875      1.532317      0.954895
