  # total energy =   -19.33646395 
CRSYTAL
PRIMVEC
     6.7020160000000004    0.0000000000000000    0.0000000000000000
     0.0000000000000000    6.7020160000000004    0.0000000000000000
     0.0000000000000000    0.0000000000000000    6.7020160000000004
PRESSURE
-0.055065 -0.620128 0.551294 0.123172 -0.357123 0.406242
PRIMCOORD
4 1
H       6.69267      3.43969      5.92917         0.061428     -0.495245      0.274092
H       1.00675      2.09737      6.49068        -0.902395      1.098429     -0.024733
H       0.13128      3.04803      0.88171        -0.881260      0.076270      1.395716
N       0.50013      2.98598      6.68233         1.723065     -0.679096     -1.646681
