  # total energy =   -19.43391714 
CRSYTAL
PRIMVEC
     6.7020160000000004    0.0000000000000000    0.0000000000000000
     0.0000000000000000    6.7020160000000004    0.0000000000000000
     0.0000000000000000    0.0000000000000000    6.7020160000000004
PRESSURE
0.538761 0.089878 0.727546 -0.265784 -0.534914 -0.019925
PRIMCOORD
4 1
H       6.66974      3.69991      5.22788         0.385521      0.409145     -0.510900
H       0.10622      5.34713      5.57952         0.158496      0.501949     -0.821968
H       6.00855      4.34166      6.46438        -1.271943     -0.055235      1.332045
N       0.14009      4.41175      5.93938         0.727861     -0.855520      0.001136
