  # total energy =   -19.27685118 
CRSYTAL
PRIMVEC
     6.7020160000000004    0.0000000000000000    0.0000000000000000
     0.0000000000000000    6.7020160000000004    0.0000000000000000
     0.0000000000000000    0.0000000000000000    6.7020160000000004
PRESSURE
0.45279 0.220165 0.503261 -0.027873 0.173495 -0.238935
PRIMCOORD
4 1
H       6.68395      3.57734      5.73983        -0.554964      0.485162     -0.237156
H       1.31958      2.86878      6.35548         0.673245     -0.119318      0.640309
H       0.05026      3.43770      0.73838         0.010069      0.362489      1.020878
N       0.40167      3.19405      6.55620        -0.128098     -0.728498     -1.423564
