  # total energy =   -19.30755519 
CRSYTAL
PRIMVEC
     6.7020160000000004    0.0000000000000000    0.0000000000000000
     0.0000000000000000    6.7020160000000004    0.0000000000000000
     0.0000000000000000    0.0000000000000000    6.7020160000000004
PRESSURE
-0.414917 -1.34996 -0.569313 0.060155 0.453565 0.35327
PRIMCOORD
4 1
H       0.43401      3.85219      5.27307        -0.830331      1.358211      0.421686
H       6.57668      5.58274      5.32384         0.161567     -1.506385      0.234875
H       6.03693      4.43444      6.52190         0.694887      0.160510     -1.049196
N       0.04171      4.66820      5.79620        -0.026429     -0.012110      0.393373
