  # total energy =   -19.21467108 
CRSYTAL
PRIMVEC
     6.7020160000000004    0.0000000000000000    0.0000000000000000
     0.0000000000000000    6.7020160000000004    0.0000000000000000
     0.0000000000000000    0.0000000000000000    6.7020160000000004
PRESSURE
-0.357807 -1.16361 -0.463864 -0.085719 -0.073128 -0.430434
PRIMCOORD
4 1
H       1.47558      0.78179      0.14310         0.232014      0.805001      0.697824
H       0.08365      1.36018      0.51754         0.582145      0.641264      0.513210
H       0.72618      0.25012      1.41305         0.796811      1.958179     -0.086084
N       1.02001      1.22883      0.99151        -1.611443     -3.404080     -1.125586
