  # total energy =   -19.20585001 
CRSYTAL
PRIMVEC
     6.7020160000000004    0.0000000000000000    0.0000000000000000
     0.0000000000000000    6.7020160000000004    0.0000000000000000
     0.0000000000000000    0.0000000000000000    6.7020160000000004
PRESSURE
-0.920761 -0.205433 -1.35477 -0.06656 0.667212 -0.348653
PRIMCOORD
4 1
H       6.56863      3.45979      5.33065         0.017050      0.350664      0.765909
H       1.07500      4.48288      6.06488        -1.183649     -0.550646      0.405290
H       6.34840      3.91947      0.37268         1.266128      0.120719     -2.055266
N       0.22221      3.90592      6.17973        -0.098582      0.079419      0.885147
