  # total energy =   -19.48433655 
CRSYTAL
PRIMVEC
     6.7020160000000004    0.0000000000000000    0.0000000000000000
     0.0000000000000000    6.7020160000000004    0.0000000000000000
     0.0000000000000000    0.0000000000000000    6.7020160000000004
PRESSURE
-0.136703 -0.045905 -0.208619 0.106627 0.351741 -0.049287
PRIMCOORD
4 1
H       6.57771      3.62473      5.25588        -0.340567     -0.093069     -0.248489
H       0.53930      5.05413      5.79099        -0.322119     -0.159969      0.123962
H       6.16713      4.19285      0.09680         0.408858      0.106353     -0.755847
N       0.19047      4.13422      6.06506         0.254427      0.147723      0.881565
