  # total energy =   -19.30983080 
CRSYTAL
PRIMVEC
     6.7020160000000004    0.0000000000000000    0.0000000000000000
     0.0000000000000000    6.7020160000000004    0.0000000000000000
     0.0000000000000000    0.0000000000000000    6.7020160000000004
PRESSURE
-0.230466 -0.55095 -0.219775 0.295043 -0.203372 0.421011
PRIMCOORD
4 1
H       6.68237      3.48252      5.92020         0.271269     -0.726852      0.364504
H       1.05606      2.15237      6.52986        -0.814272      0.859476     -0.463153
H       0.13595      3.06799      0.90561        -0.303780      0.135937     -0.194774
N       0.48960      3.00459      6.66414         0.847167     -0.268279      0.292699
