  # total energy =   -19.50923911 
CRSYTAL
PRIMVEC
     6.7020160000000004    0.0000000000000000    0.0000000000000000
     0.0000000000000000    6.7020160000000004    0.0000000000000000
     0.0000000000000000    0.0000000000000000    6.7020160000000004
PRESSURE
0.239045 0.255488 0.091562 -0.193874 -0.038402 -0.115169
PRIMCOORD
4 1
H       1.56245      0.99652      0.15154         0.331610     -0.053905      0.049899
H       0.07590      1.41786      0.47750        -0.303164      0.280888      0.046376
H       0.83860      0.46655      1.49567         0.091415     -0.491015      0.419369
N       0.97884      1.29434      0.93459        -0.120575      0.263783     -0.515060
