  # total energy =   -19.15180169 
CRSYTAL
PRIMVEC
     6.7020160000000004    0.0000000000000000    0.0000000000000000
     0.0000000000000000    6.7020160000000004    0.0000000000000000
     0.0000000000000000    0.0000000000000000    6.7020160000000004
PRESSURE
-0.656458 -1.48332 -0.521579 -0.082588 -0.097526 -0.32555
PRIMCOORD
4 1
H       1.47041      0.69661      0.16343         0.040100      1.088948      0.795446
H       0.09473      1.39180      0.56885         1.038202      0.311650      0.592076
H       0.70322      0.17563      1.41223         0.818325      2.345825     -0.095788
N       1.03877      1.17391      1.02044        -1.896274     -3.747295     -1.291375
