  # total energy =   -19.48867623 
CRSYTAL
PRIMVEC
     6.7020160000000004    0.0000000000000000    0.0000000000000000
     0.0000000000000000    6.7020160000000004    0.0000000000000000
     0.0000000000000000    0.0000000000000000    6.7020160000000004
PRESSURE
0.171661 0.399875 0.498797 0.142399 -0.092335 -0.07772
PRIMCOORD
4 1
H       0.06045      3.73738      5.22318         0.038382     -0.470177     -0.900394
H       0.13511      5.36468      5.52034        -0.176766      0.500984     -0.369317
H       6.01996      4.32378      6.51846        -0.353133      0.231664      0.260679
N       0.12033      4.44655      5.92023         0.491478     -0.262687      1.008774
