  # total energy =   -19.36473108 
CRSYTAL
PRIMVEC
     6.7020160000000004    0.0000000000000000    0.0000000000000000
     0.0000000000000000    6.7020160000000004    0.0000000000000000
     0.0000000000000000    0.0000000000000000    6.7020160000000004
PRESSURE
-0.693329 -0.720391 -1.35124 0.208111 0.577204 -0.162296
PRIMCOORD
4 1
H       6.54604      3.70919      5.17518         0.091891      0.154132      1.183937
H       0.39067      5.15048      5.65673        -0.393003     -1.321641      1.088944
H       6.06222      4.25432      0.03669         1.474271     -0.001000     -1.549257
N       0.19552      4.17287      6.05505        -1.172195      1.167569     -0.723424
