  # total energy =   -19.43854269 
CRSYTAL
PRIMVEC
     6.7020160000000004    0.0000000000000000    0.0000000000000000
     0.0000000000000000    6.7020160000000004    0.0000000000000000
     0.0000000000000000    0.0000000000000000    6.7020160000000004
PRESSURE
-0.092932 0.023606 -0.672427 -0.279641 -0.278435 0.041493
PRIMCOORD
4 1
H       6.59835      3.74294      5.70308         0.405000      0.258726      0.156555
H       1.37661      3.33484      6.47971        -0.033834      0.112381     -0.729984
H       0.12276      3.72078      0.69547        -0.227027     -0.353702     -1.228254
N       0.35952      3.27093      6.47758        -0.145200     -0.016811      1.801397
