  # total energy =   -19.43101138 
CRSYTAL
PRIMVEC
     6.7020160000000004    0.0000000000000000    0.0000000000000000
     0.0000000000000000    6.7020160000000004    0.0000000000000000
     0.0000000000000000    0.0000000000000000    6.7020160000000004
PRESSURE
0.006464 -0.063611 0.740365 0.248221 -0.230133 -0.269534
PRIMCOORD
4 1
H       6.63434      3.88220      5.71812        -0.118816     -0.262281     -0.394939
H       1.33937      3.59682      6.40723        -0.209858     -0.536008     -0.235091
H       0.08288      3.85323      0.54494        -0.670572      0.310567      1.384364
N       0.34374      3.30102      6.45625         0.999691      0.487932     -0.754309
