  # total energy =   -19.25268376 
CRSYTAL
PRIMVEC
     6.7020160000000004    0.0000000000000000    0.0000000000000000
     0.0000000000000000    6.7020160000000004    0.0000000000000000
     0.0000000000000000    0.0000000000000000    6.7020160000000004
PRESSURE
0.569362 0.046275 -0.104239 0.042505 0.171533 -0.012567
PRIMCOORD
4 1
H       1.61934      1.81363      0.14193         0.743806     -0.045605      0.254313
H       6.67673      1.59377      0.33102        -0.573620     -0.008748     -0.149986
H       0.91446      1.17524      1.67944         0.567467      0.055863     -0.100873
N       0.87828      1.53187      0.74210        -0.737864     -0.001240     -0.002934
