  # total energy =   -19.45014162 
CRSYTAL
PRIMVEC
     6.7020160000000004    0.0000000000000000    0.0000000000000000
     0.0000000000000000    6.7020160000000004    0.0000000000000000
     0.0000000000000000    0.0000000000000000    6.7020160000000004
PRESSURE
0.391293 0.390458 0.570854 0.090714 -0.146044 0.136971
PRIMCOORD
4 1
H       6.58211      3.60159      5.28249        -0.407147     -0.280003     -0.759765
H       0.57274      5.01480      5.83724         0.088230      0.642857     -0.293955
H       6.21426      4.17705      0.09029        -0.786968      0.131237      0.569831
N       0.18876      4.12390      6.06875         1.105409     -0.493434      0.484155
