  # total energy =   -19.22940555 
CRSYTAL
PRIMVEC
     6.7020160000000004    0.0000000000000000    0.0000000000000000
     0.0000000000000000    6.7020160000000004    0.0000000000000000
     0.0000000000000000    0.0000000000000000    6.7020160000000004
PRESSURE
0.922391 0.426309 1.33425 0.11524 -0.66007 0.403937
PRIMCOORD
4 1
H       6.58273      3.46448      5.36423        -0.287611     -0.313205     -0.788872
H       0.93680      4.61173      6.07190         0.979685      0.910375     -0.371581
H       6.39076      3.98673      0.24294        -1.735846      0.043506      2.346409
N       0.20793      3.96499      6.14717         1.044801     -0.641488     -1.186521
