  # total energy =   -19.23772261 
CRSYTAL
PRIMVEC
     6.7020160000000004    0.0000000000000000    0.0000000000000000
     0.0000000000000000    6.7020160000000004    0.0000000000000000
     0.0000000000000000    0.0000000000000000    6.7020160000000004
PRESSURE
0.165914 -0.048015 -0.825723 0.304171 0.122205 -0.022057
PRIMCOORD
4 1
H       1.62009      1.84495      0.13360         0.415773     -0.139369      0.528002
H       6.66242      1.59103      0.31505        -0.002135     -0.047717      0.130861
H       0.91359      1.19184      1.70373         0.492760      0.484667     -1.206531
N       0.87555      1.54239      0.73481        -0.906206     -0.298274      0.548829
