  # total energy =   -19.32479560 
CRSYTAL
PRIMVEC
     6.7020160000000004    0.0000000000000000    0.0000000000000000
     0.0000000000000000    6.7020160000000004    0.0000000000000000
     0.0000000000000000    0.0000000000000000    6.7020160000000004
PRESSURE
-0.032676 0.112784 -0.038821 0.038101 0.149874 0.046603
PRIMCOORD
4 1
H       6.48020      3.52087      5.41022        -0.046741      0.100058     -0.140323
H       1.18289      4.14554      6.18527         0.100253      0.267137      0.114439
H       6.41484      3.83509      0.39687         0.296256      0.206135     -0.198487
N       0.26294      3.76074      6.25438        -0.350912     -0.572404      0.225193
