  # total energy =   -19.30638581 
CRSYTAL
PRIMVEC
     6.7020160000000004    0.0000000000000000    0.0000000000000000
     0.0000000000000000    6.7020160000000004    0.0000000000000000
     0.0000000000000000    0.0000000000000000    6.7020160000000004
PRESSURE
0.424647 0.192036 0.491588 0.033657 -0.277966 0.179124
PRIMCOORD
4 1
H       6.58077      3.46265      5.35080        -0.193734     -0.048218     -0.144627
H       0.99325      4.54526      6.06910         0.390224      0.445291     -0.052300
H       6.38620      3.95453      0.28409        -0.774870      0.075594      0.987612
N       0.21338      3.93924      6.16285         0.578499     -0.471732     -0.789768
