  # total energy =   -19.36709583 
CRSYTAL
PRIMVEC
     6.7020160000000004    0.0000000000000000    0.0000000000000000
     0.0000000000000000    6.7020160000000004    0.0000000000000000
     0.0000000000000000    0.0000000000000000    6.7020160000000004
PRESSURE
-0.545996 -0.088981 0.265687 -0.043405 -0.125259 -0.332803
PRIMCOORD
4 1
H       1.48673      2.38732      0.19194        -0.888056     -0.291922     -0.066974
H       6.59713      1.60342      0.19525         0.429854      0.469610      0.264956
H       0.90329      1.73438      1.60054        -0.431767     -0.007712      0.600034
N       0.81820      1.72804      0.60650         0.890034     -0.170534     -0.797257
