  # total energy =   -19.28375755 
CRSYTAL
PRIMVEC
     6.7020160000000004    0.0000000000000000    0.0000000000000000
     0.0000000000000000    6.7020160000000004    0.0000000000000000
     0.0000000000000000    0.0000000000000000    6.7020160000000004
PRESSURE
0.352419 1.25037 0.352243 0.086108 -0.216959 -0.216093
PRIMCOORD
4 1
H       0.37705      3.91837      5.22000         0.139027     -1.696185     -0.545482
H       0.02457      5.45404      5.33691        -0.543547      1.353027     -0.176368
H       6.09558      4.41806      6.54665        -0.815559     -0.286858      0.324490
N       0.04967      4.60520      5.83366         1.220545      0.630086      0.398452
