  # total energy =   -19.39968324 
CRSYTAL
PRIMVEC
     6.7020160000000004    0.0000000000000000    0.0000000000000000
     0.0000000000000000    6.7020160000000004    0.0000000000000000
     0.0000000000000000    0.0000000000000000    6.7020160000000004
PRESSURE
0.353068 0.266069 -0.071214 0.265781 -0.435511 0.181386
PRIMCOORD
4 1
H       6.52368      3.78152      5.17787         0.162238     -0.723287      0.378655
H       0.24847      5.14937      5.61606         0.519240      0.210315      0.617421
H       6.06564      4.30352      6.59670        -0.823186     -0.067531      0.846335
N       0.19494      4.20844      6.04450         0.142407      0.581937     -1.842713
