  # total energy =   -19.44087628 
CRSYTAL
PRIMVEC
     6.7020160000000004    0.0000000000000000    0.0000000000000000
     0.0000000000000000    6.7020160000000004    0.0000000000000000
     0.0000000000000000    0.0000000000000000    6.7020160000000004
PRESSURE
0.39993 0.205258 0.219952 -0.099985 -0.218895 0.101069
PRIMCOORD
4 1
H       6.44302      3.70783      5.50280         0.151019      0.379790     -0.335465
H       1.22227      3.95662      6.33123         0.748480      0.515466     -0.557780
H       6.53027      3.91013      0.44955        -0.350612      0.149287      0.182089
N       0.30283      3.57934      6.32704        -0.547159     -1.044287      0.710788
