  # total energy =   -19.26247998 
CRSYTAL
PRIMVEC
     6.7020160000000004    0.0000000000000000    0.0000000000000000
     0.0000000000000000    6.7020160000000004    0.0000000000000000
     0.0000000000000000    0.0000000000000000    6.7020160000000004
PRESSURE
-1.11332 -0.011208 -1.02134 -0.17421 0.307054 -0.217059
PRIMCOORD
4 1
H       6.44213      3.54439      5.41653         0.506876      0.378568      0.491628
H       1.23536      4.09461      6.23822        -1.243010     -0.221493     -0.105226
H       6.41691      3.84163      0.45544         1.092944     -0.011380     -1.680612
N       0.27437      3.71621      6.27037        -0.356137     -0.145654      1.295224
