  # total energy =   -19.23597680 
CRSYTAL
PRIMVEC
     6.7020160000000004    0.0000000000000000    0.0000000000000000
     0.0000000000000000    6.7020160000000004    0.0000000000000000
     0.0000000000000000    0.0000000000000000    6.7020160000000004
PRESSURE
0.059773 -0.039565 1.21474 0.186011 -0.448431 0.03678
PRIMCOORD
4 1
H       6.67374      3.54931      5.87390         0.011373     -0.027984     -0.518949
H       1.21065      2.42984      6.52126        -0.286468      0.257552     -0.559870
H       0.12980      3.19554      0.81338        -0.949598      0.390962      2.072011
N       0.44794      3.08638      6.61340         1.223280     -0.618940     -0.993265
