  # total energy =   -19.28030355 
CRSYTAL
PRIMVEC
     6.7020160000000004    0.0000000000000000    0.0000000000000000
     0.0000000000000000    6.7020160000000004    0.0000000000000000
     0.0000000000000000    0.0000000000000000    6.7020160000000004
PRESSURE
0.641107 0.704753 1.3402 -0.784146 -0.043403 -0.027603
PRIMCOORD
4 1
H       1.70386      1.26457      0.25260         0.390967      0.070115     -1.069704
H       0.03968      1.56937      0.48363        -1.061336     -0.042684     -0.666120
H       0.99673      0.73948      1.56863        -0.334450     -2.014378      2.275537
N       0.92582      1.36988      0.85540         1.004960      1.985375     -0.539411
