  # total energy =   -19.27044534 
CRSYTAL
PRIMVEC
     6.7020160000000004    0.0000000000000000    0.0000000000000000
     0.0000000000000000    6.7020160000000004    0.0000000000000000
     0.0000000000000000    0.0000000000000000    6.7020160000000004
PRESSURE
0.30869 0.139816 -0.624489 -0.227261 0.084974 0.086446
PRIMCOORD
4 1
H       0.30042      3.84054      5.14153        -0.766994      0.145222      1.370721
H       0.11618      5.41516      5.35718        -0.640238      0.402418      0.672849
H       6.08783      4.37682      6.56535        -1.048944     -0.160380      0.250188
N       0.06849      4.54584      5.87392         2.455293     -0.387416     -2.293605
