  # total energy =   -19.32245192 
CRSYTAL
PRIMVEC
     6.7020160000000004    0.0000000000000000    0.0000000000000000
     0.0000000000000000    6.7020160000000004    0.0000000000000000
     0.0000000000000000    0.0000000000000000    6.7020160000000004
PRESSURE
-0.39199 -0.322635 -1.04595 -0.019376 -0.139125 -0.4793
PRIMCOORD
4 1
H       0.93704      2.94412      6.50702        -0.268041      0.142129      0.768021
H       0.04089      1.49615      6.64467         1.073169      1.202069      0.866851
H       0.56049      2.22466      1.42066         0.073895      0.599097     -1.064077
N       0.73817      2.14788      0.40679        -0.879193     -1.943673     -0.569154
