  # total energy =   -19.27925192 
CRSYTAL
PRIMVEC
     6.7020160000000004    0.0000000000000000    0.0000000000000000
     0.0000000000000000    6.7020160000000004    0.0000000000000000
     0.0000000000000000    0.0000000000000000    6.7020160000000004
PRESSURE
1.12549 0.028896 0.938141 0.579844 -0.123993 0.041324
PRIMCOORD
4 1
H       6.59869      3.95495      5.61394        -0.673915     -0.734382     -0.460853
H       1.19751      3.89662      6.25806         1.755869      0.079852      0.494400
H       6.60968      3.96494      0.40839        -0.721418      0.735335      2.067129
N       0.32335      3.43252      6.39599        -0.360648     -0.081397     -2.100740
