  # total energy =   -19.51220067 
CRSYTAL
PRIMVEC
     6.7020160000000004    0.0000000000000000    0.0000000000000000
     0.0000000000000000    6.7020160000000004    0.0000000000000000
     0.0000000000000000    0.0000000000000000    6.7020160000000004
PRESSURE
-0.1332 -0.207594 0.379157 0.260637 -0.083839 -0.107846
PRIMCOORD
4 1
H       0.92769      2.92945      6.66425        -0.073549     -0.488355      0.301239
H       6.61470      1.63917      0.04991         0.324844      0.073403     -0.033749
H       0.52591      2.25129      1.39103        -0.067579      0.297881      0.910659
N       0.78080      2.02608      0.44873        -0.183605      0.116471     -1.178353
