  # total energy =   -19.24405875 
CRSYTAL
PRIMVEC
     6.7020160000000004    0.0000000000000000    0.0000000000000000
     0.0000000000000000    6.7020160000000004    0.0000000000000000
     0.0000000000000000    0.0000000000000000    6.7020160000000004
PRESSURE
0.041172 -1.30488 0.60111 0.120242 -0.102858 -0.278493
PRIMCOORD
4 1
H       0.76942      3.23035      6.42875        -0.332417     -1.263818      0.360357
H       0.39892      1.44737      6.59299         0.210744      1.478709      0.314566
H       0.55499      2.50417      1.25136        -0.307941      0.106430      1.540508
N       0.65369      2.37114      0.29020         0.430048     -0.321424     -2.215225
