  # total energy =   -19.43689366 
CRSYTAL
PRIMVEC
     6.7020160000000004    0.0000000000000000    0.0000000000000000
     0.0000000000000000    6.7020160000000004    0.0000000000000000
     0.0000000000000000    0.0000000000000000    6.7020160000000004
PRESSURE
0.399985 0.228696 0.923315 0.279876 -0.450702 -0.210713
PRIMCOORD
4 1
H       6.61863      3.82585      5.71958         0.015097      0.109841     -0.416363
H       1.34190      3.49999      6.44989         0.534156     -0.178283     -0.626284
H       0.11769      3.79186      0.57646        -1.016612      0.741027      1.752640
N       0.34931      3.29041      6.46460         0.467671     -0.672594     -0.709293
