  # total energy =   -19.27340047 
CRSYTAL
PRIMVEC
     6.7020160000000004    0.0000000000000000    0.0000000000000000
     0.0000000000000000    6.7020160000000004    0.0000000000000000
     0.0000000000000000    0.0000000000000000    6.7020160000000004
PRESSURE
0.288988 0.241665 1.0407 0.168882 -0.045072 -0.200194
PRIMCOORD
4 1
H       6.67378      3.59090      5.73200        -0.458899      0.450380     -0.212494
H       1.34134      2.92369      6.36629         0.199277      0.092534      0.583649
H       0.06656      3.46207      0.71072        -0.487295      0.811368      2.209253
N       0.39450      3.20633      6.54794         0.746395     -1.354109     -2.580706
