  # total energy =   -19.09727558 
CRSYTAL
PRIMVEC
     6.7020160000000004    0.0000000000000000    0.0000000000000000
     0.0000000000000000    6.7020160000000004    0.0000000000000000
     0.0000000000000000    0.0000000000000000    6.7020160000000004
PRESSURE
-0.65951 -1.57834 -0.680734 -0.04377 -0.058416 -0.420609
PRIMCOORD
4 1
H       1.47344      0.73993      0.14271         0.019759      1.046876      0.990915
H       0.07927      1.36862      0.53171         1.006230      0.472690      0.672244
H       0.70953      0.20000      1.41488         0.929490      2.533264     -0.274463
N       1.02843      1.21007      1.00351        -1.955758     -4.053101     -1.389947
