  # total energy =   -19.18093186 
CRSYTAL
PRIMVEC
     6.7020160000000004    0.0000000000000000    0.0000000000000000
     0.0000000000000000    6.7020160000000004    0.0000000000000000
     0.0000000000000000    0.0000000000000000    6.7020160000000004
PRESSURE
-1.46427 -1.1122 -0.49014 -0.204174 0.148967 0.133813
PRIMCOORD
4 1
H       6.53558      3.70638      5.18184         0.862621      0.932858      0.751725
H       0.07500      5.32427      5.59875         0.671902     -1.494417      0.108012
H       5.88894      4.37150      6.49798         2.401472     -0.414351     -0.560269
N       0.18411      4.32430      5.98474        -3.935463      0.976505     -0.298972
