  # total energy =   -19.08244157 
CRSYTAL
PRIMVEC
     6.7020160000000004    0.0000000000000000    0.0000000000000000
     0.0000000000000000    6.7020160000000004    0.0000000000000000
     0.0000000000000000    0.0000000000000000    6.7020160000000004
PRESSURE
-0.700437 -1.62725 -0.698364 -0.042569 -0.059214 -0.4116
PRIMCOORD
4 1
H       1.47301      0.73135      0.14400        -0.007289      1.083332      1.017892
H       0.07958      1.37140      0.53607         1.065593      0.436467      0.687447
H       0.70687      0.19155      1.41496         0.939553      2.592506     -0.284232
N       1.03026      1.20515      1.00625        -1.998096     -4.112888     -1.422273
