  # total energy =   -19.25861303 
CRSYTAL
PRIMVEC
     6.7020160000000004    0.0000000000000000    0.0000000000000000
     0.0000000000000000    6.7020160000000004    0.0000000000000000
     0.0000000000000000    0.0000000000000000    6.7020160000000004
PRESSURE
-0.617745 -0.062829 -0.991754 0.328754 0.029613 -0.117661
PRIMCOORD
4 1
H       1.62851      1.95987      0.14551        -0.473976     -0.302256      0.792961
H       6.63154      1.57673      0.27064         0.854958      0.025870      0.499901
H       0.93577      1.30169      1.69695         0.162609      0.465517     -1.199720
N       0.85999      1.58425      0.70743        -0.542044     -0.189286     -0.093041
