  # total energy =   -19.19548203 
CRSYTAL
PRIMVEC
     6.7020160000000004    0.0000000000000000    0.0000000000000000
     0.0000000000000000    6.7020160000000004    0.0000000000000000
     0.0000000000000000    0.0000000000000000    6.7020160000000004
PRESSURE
-0.645787 -0.120558 -1.5132 0.508932 0.028663 -0.105593
PRIMCOORD
4 1
H       1.62863      1.92627      0.13162        -0.387133     -0.344846      0.941068
H       6.63200      1.58173      0.27909         0.982567     -0.022035      0.583785
H       0.92521      1.25785      1.72151         0.253764      0.741457     -2.017288
N       0.86573      1.57104      0.71582        -0.847839     -0.375067      0.491723
