  # total energy =   -19.42233660 
CRSYTAL
PRIMVEC
     6.7020160000000004    0.0000000000000000    0.0000000000000000
     0.0000000000000000    6.7020160000000004    0.0000000000000000
     0.0000000000000000    0.0000000000000000    6.7020160000000004
PRESSURE
0.6424 0.511442 0.070624 -0.444315 -0.329325 0.040707
PRIMCOORD
4 1
H       0.35665      4.12715      5.12846         0.348991     -0.308975      0.580331
H       6.25027      5.39312      4.97672        -0.298423      0.840302      0.049537
H       5.96323      4.49464      6.23248        -1.253693     -0.765906      1.050560
N       0.01258      4.88889      5.72957         1.202594      0.235273     -1.680776
