  # total energy =   -19.44681376 
CRSYTAL
PRIMVEC
     6.7020160000000004    0.0000000000000000    0.0000000000000000
     0.0000000000000000    6.7020160000000004    0.0000000000000000
     0.0000000000000000    0.0000000000000000    6.7020160000000004
PRESSURE
-0.571453 -0.260081 -0.75366 0.204396 0.027184 0.069264
PRIMCOORD
4 1
H       1.14825      2.69293      0.10051         0.064638     -0.589818      0.681521
H       6.54489      1.76886      0.16634         1.027430     -0.319403      0.356456
H       0.63740      2.01837      1.56127         0.467998     -0.003691     -0.959347
N       0.82988      1.80274      0.54966        -1.559380      0.913687     -0.079494
