  # total energy =   -19.33166043 
CRSYTAL
PRIMVEC
     6.7020160000000004    0.0000000000000000    0.0000000000000000
     0.0000000000000000    6.7020160000000004    0.0000000000000000
     0.0000000000000000    0.0000000000000000    6.7020160000000004
PRESSURE
-0.793338 -0.112308 -0.167777 -0.074699 -0.264468 -0.400418
PRIMCOORD
4 1
H       1.51097      2.36540      0.20367        -1.045760     -0.356002     -0.119673
H       6.59142      1.59160      0.19366         0.755418      0.540976      0.428778
H       0.92623      1.71694      1.61891        -0.604094     -0.057214     -0.168958
N       0.81811      1.72121      0.61002         0.894610     -0.127402     -0.139857
