  # total energy =   -19.39476590 
CRSYTAL
PRIMVEC
     6.7020160000000004    0.0000000000000000    0.0000000000000000
     0.0000000000000000    6.7020160000000004    0.0000000000000000
     0.0000000000000000    0.0000000000000000    6.7020160000000004
PRESSURE
-0.530119 -0.005069 -1.08647 -0.323123 -0.173017 0.126777
PRIMCOORD
4 1
H       6.59862      3.71513      5.69682         0.498518      0.216043      0.387841
H       1.39653      3.26771      6.47230        -0.719174      0.218193     -0.583300
H       0.11376      3.68754      0.72912         0.062777     -0.458551     -1.832846
N       0.36357      3.26243      6.48552         0.157547      0.024062      2.027776
