  # total energy =   -19.38365504 
CRSYTAL
PRIMVEC
     6.7020160000000004    0.0000000000000000    0.0000000000000000
     0.0000000000000000    6.7020160000000004    0.0000000000000000
     0.0000000000000000    0.0000000000000000    6.7020160000000004
PRESSURE
0.017781 -0.135552 0.294712 -0.333519 -0.283688 -0.107027
PRIMCOORD
4 1
H       1.47059      0.68816      0.20737         0.547752      0.593696     -0.324476
H       0.14220      1.42642      0.62450         0.211537      0.452926      0.118935
H       0.72212      0.22344      1.40933         0.022459      0.136166      0.887885
N       1.04481      1.12920      1.03444        -0.780671     -1.181321     -0.681598
