  # total energy =   -19.16891264 
CRSYTAL
PRIMVEC
     6.7020160000000004    0.0000000000000000    0.0000000000000000
     0.0000000000000000    6.7020160000000004    0.0000000000000000
     0.0000000000000000    0.0000000000000000    6.7020160000000004
PRESSURE
1.04924 0.335182 1.5041 -0.643449 0.25988 -0.077234
PRIMCOORD
4 1
H       1.63622      1.73024      0.16742         1.027992      0.018497     -0.198079
H       6.69707      1.60139      0.36755        -1.339421      0.110808     -0.566146
H       0.93019      1.12652      1.62684         0.659433     -1.324408      2.880720
N       0.88446      1.50440      0.76072        -0.348869      1.195982     -2.116239
