  # total energy =   -19.23944375 
CRSYTAL
PRIMVEC
     6.7020160000000004    0.0000000000000000    0.0000000000000000
     0.0000000000000000    6.7020160000000004    0.0000000000000000
     0.0000000000000000    0.0000000000000000    6.7020160000000004
PRESSURE
0.806944 0.128114 0.444668 -0.171018 0.205184 -0.019742
PRIMCOORD
4 1
H       1.62099      1.79127      0.14872         0.920617      0.001236      0.077886
H       6.68528      1.59567      0.34197        -0.928880      0.028832     -0.329424
H       0.91681      1.16381      1.66152         0.611569     -0.332514      0.829997
N       0.88005      1.52441      0.74728        -0.603605      0.303716     -0.578962
