  # total energy =   -19.51473989 
CRSYTAL
PRIMVEC
     6.7020160000000004    0.0000000000000000    0.0000000000000000
     0.0000000000000000    6.7020160000000004    0.0000000000000000
     0.0000000000000000    0.0000000000000000    6.7020160000000004
PRESSURE
-0.271379 -0.072651 -0.06228 0.152313 -0.082214 -0.038083
PRIMCOORD
4 1
H       6.50479      3.85742      5.53970         0.244969     -0.294273      0.337254
H       1.24728      3.93709      6.29152        -0.388912     -0.220625      0.132477
H       6.55445      3.95097      0.44926         0.025590      0.033882      0.226546
N       0.31470      3.49497      6.36554         0.118140      0.481242     -0.696614
