  # total energy =   -19.40532886 
CRSYTAL
PRIMVEC
     6.7020160000000004    0.0000000000000000    0.0000000000000000
     0.0000000000000000    6.7020160000000004    0.0000000000000000
     0.0000000000000000    0.0000000000000000    6.7020160000000004
PRESSURE
0.140494 -0.064068 -0.486643 0.155521 -0.107025 0.133934
PRIMCOORD
4 1
H       0.37498      3.29630      6.22374         0.012665     -0.532564      0.854312
H       0.52054      1.65618      6.47689        -0.326114     -0.354376      0.346086
H       0.29230      2.70854      1.14263        -0.353214     -0.237999     -0.175677
N       0.63082      2.56000      0.20258         0.666167      1.124776     -1.024162
