  # total energy =   -19.28041041 
CRSYTAL
PRIMVEC
     6.7020160000000004    0.0000000000000000    0.0000000000000000
     0.0000000000000000    6.7020160000000004    0.0000000000000000
     0.0000000000000000    0.0000000000000000    6.7020160000000004
PRESSURE
-0.561995 -0.189877 -0.494906 -0.050542 0.165533 0.356099
PRIMCOORD
4 1
H       6.67419      3.56413      5.78540         0.268681     -0.205332      0.577662
H       1.29037      2.60009      6.40904        -0.942945      0.610779      0.504921
H       0.05911      3.31654      0.81504         0.386121     -0.161315     -0.382331
N       0.42794      3.13496      6.59026         0.287233     -0.244715     -0.700798
