  # total energy =   -19.32680517 
CRSYTAL
PRIMVEC
     6.7020160000000004    0.0000000000000000    0.0000000000000000
     0.0000000000000000    6.7020160000000004    0.0000000000000000
     0.0000000000000000    0.0000000000000000    6.7020160000000004
PRESSURE
0.832754 0.524092 1.18856 -0.012455 -0.716158 0.238058
PRIMCOORD
4 1
H       6.58058      3.55750      5.30858        -0.247507     -0.093657     -0.809116
H       0.63158      4.96688      5.90529         0.461725      1.064945     -0.665398
H       6.26837      4.15400      0.09943        -1.994911      0.110638      2.072653
N       0.18798      4.10592      6.07526         1.780668     -1.081361     -0.596531
