  # total energy =   -19.39249231 
CRSYTAL
PRIMVEC
     6.7020160000000004    0.0000000000000000    0.0000000000000000
     0.0000000000000000    6.7020160000000004    0.0000000000000000
     0.0000000000000000    0.0000000000000000    6.7020160000000004
PRESSURE
0.03671 0.004601 1.0372 0.036129 0.112715 -0.146157
PRIMCOORD
4 1
H       1.43199      2.42963      0.16790        -0.481092     -0.056472      0.005832
H       6.61075      1.63039      0.19986        -0.404811      0.274762     -0.148010
H       0.85433      1.76965      1.56966        -0.164019      0.159322      1.967558
N       0.81886      1.74170      0.59888         1.050392     -0.378032     -1.825198
