  # total energy =   -19.42898643 
CRSYTAL
PRIMVEC
     6.7020160000000004    0.0000000000000000    0.0000000000000000
     0.0000000000000000    6.7020160000000004    0.0000000000000000
     0.0000000000000000    0.0000000000000000    6.7020160000000004
PRESSURE
-0.185106 0.012216 -0.786631 -0.30121 -0.25713 0.059925
PRIMCOORD
4 1
H       6.59786      3.73728      5.70156         0.431213      0.251347      0.210002
H       1.38083      3.32171      6.47910        -0.175615      0.131342     -0.708428
H       0.12114      3.71488      0.70381        -0.158893     -0.399801     -1.406970
N       0.36030      3.26929      6.47894        -0.097619      0.017584      1.904940
