  # total energy =   -19.40649652 
CRSYTAL
PRIMVEC
     6.7020160000000004    0.0000000000000000    0.0000000000000000
     0.0000000000000000    6.7020160000000004    0.0000000000000000
     0.0000000000000000    0.0000000000000000    6.7020160000000004
PRESSURE
0.515465 0.129413 1.20101 0.102914 0.240746 0.032524
PRIMCOORD
4 1
H       1.37591      2.46907      0.14528        -0.084978      0.237216      0.061952
H       6.61988      1.65836      0.20288        -1.123417      0.078868     -0.491754
H       0.80653      1.80441      1.55792        -0.024196      0.342233      2.182851
N       0.82017      1.75432      0.59055         1.232057     -0.659057     -1.751883
