  # total energy =   -19.21180888 
CRSYTAL
PRIMVEC
     6.7020160000000004    0.0000000000000000    0.0000000000000000
     0.0000000000000000    6.7020160000000004    0.0000000000000000
     0.0000000000000000    0.0000000000000000    6.7020160000000004
PRESSURE
-0.037148 -0.035636 -0.803208 0.299566 0.004761 0.036882
PRIMCOORD
4 1
H       6.67551      3.52416      5.91664         0.159959     -0.504721     -0.108980
H       1.10825      2.26065      6.57100         0.001242     -0.158842     -0.954627
H       0.13567      3.10366      0.92522         0.128221      0.189596     -1.651083
N       0.47499      3.03289      6.63801        -0.289447      0.473389      2.715371
