  # total energy =   -19.30462614 
CRSYTAL
PRIMVEC
     6.7020160000000004    0.0000000000000000    0.0000000000000000
     0.0000000000000000    6.7020160000000004    0.0000000000000000
     0.0000000000000000    0.0000000000000000    6.7020160000000004
PRESSURE
-0.538347 0.054123 -0.560746 -0.039826 0.342978 -0.069337
PRIMCOORD
4 1
H       6.46876      3.52451      5.40988         0.137645      0.206528      0.102945
H       1.20216      4.13340      6.19792        -0.486964      0.039393      0.088806
H       6.40697      3.83605      0.42289         0.844146      0.118359     -1.092282
N       0.26606      3.74989      6.25768        -0.495279     -0.363008      0.900697
