  # total energy =   -19.42265219 
CRSYTAL
PRIMVEC
     6.7020160000000004    0.0000000000000000    0.0000000000000000
     0.0000000000000000    6.7020160000000004    0.0000000000000000
     0.0000000000000000    0.0000000000000000    6.7020160000000004
PRESSURE
0.709023 0.517763 0.954418 -0.14302 -0.581336 0.016684
PRIMCOORD
4 1
H       0.00143      3.71613      5.23438         0.243265     -0.141425     -0.936764
H       0.11709      5.34597      5.56377         0.058446      0.960692     -0.865360
H       6.02557      4.33472      6.47361        -1.651558     -0.027962      1.503471
N       0.13175      4.42554      5.93177         1.349970     -0.791376      0.299532
