  # total energy =   -19.13545418 
CRSYTAL
PRIMVEC
     6.7020160000000004    0.0000000000000000    0.0000000000000000
     0.0000000000000000    6.7020160000000004    0.0000000000000000
     0.0000000000000000    0.0000000000000000    6.7020160000000004
PRESSURE
-0.936139 -0.987022 -1.32873 -0.437733 0.561914 -0.630671
PRIMCOORD
4 1
H       6.56316      3.45805      5.31861         0.378109      1.048795      0.509373
H       0.82259      4.88860      6.01795        -1.232824     -1.499522     -0.496088
H       6.26318      4.09126      0.27458         1.427303     -0.143855     -2.427446
N       0.19739      4.04484      6.09548        -0.572768      0.595000      2.414084
