  # total energy =   -19.46818995 
CRSYTAL
PRIMVEC
     6.7020160000000004    0.0000000000000000    0.0000000000000000
     0.0000000000000000    6.7020160000000004    0.0000000000000000
     0.0000000000000000    0.0000000000000000    6.7020160000000004
PRESSURE
0.603864 0.248105 0.28939 0.123298 0.273935 0.152123
PRIMCOORD
4 1
H       1.30271      2.52454      0.11737         0.228095      0.489806      0.215034
H       6.61302      1.69547      0.19864        -1.136624     -0.086836     -0.488347
H       0.74478      1.85516      1.57469         0.187721      0.425876      0.472685
N       0.82325      1.76981      0.57800         0.719925     -0.828382     -0.197630
