  # total energy =   -19.22067914 
CRSYTAL
PRIMVEC
     6.7020160000000004    0.0000000000000000    0.0000000000000000
     0.0000000000000000    6.7020160000000004    0.0000000000000000
     0.0000000000000000    0.0000000000000000    6.7020160000000004
PRESSURE
0.724911 -0.585329 0.292441 0.185443 0.345993 0.15519
PRIMCOORD
4 1
H       6.63773      3.99046      5.64771        -0.843464     -0.955504     -0.448525
H       1.21338      3.87332      6.25285         1.302165     -0.368178      0.740506
H       6.61928      3.99640      0.44801         0.287267     -0.588038      0.436712
N       0.32808      3.39538      6.40916        -0.745260      1.911532     -0.728598
