  # total energy =   -19.21708859 
CRSYTAL
PRIMVEC
     6.7020160000000004    0.0000000000000000    0.0000000000000000
     0.0000000000000000    6.7020160000000004    0.0000000000000000
     0.0000000000000000    0.0000000000000000    6.7020160000000004
PRESSURE
-1.11309 -0.098566 -0.923047 -0.124151 -0.553041 -0.443475
PRIMCOORD
4 1
H       1.55705      2.30997      0.22981        -1.203328     -0.339732     -0.307511
H       6.58666      1.56941      0.19481         1.122571      0.608674      0.618567
H       0.97335      1.67507      1.65732        -0.994186     -0.101027     -1.523095
N       0.81857      1.70500      0.61846         1.074388     -0.167348      1.211234
