  # total energy =   -19.36473630 
CRSYTAL
PRIMVEC
     6.7020160000000004    0.0000000000000000    0.0000000000000000
     0.0000000000000000    6.7020160000000004    0.0000000000000000
     0.0000000000000000    0.0000000000000000    6.7020160000000004
PRESSURE
-0.354323 -0.610009 0.144543 0.016169 0.127953 -0.217199
PRIMCOORD
4 1
H       6.64733      3.93145      5.70993        -0.220905     -0.674030     -0.223324
H       1.33438      3.67973      6.36227        -0.753943     -0.884962      0.200878
H       0.03803      3.91694      0.53907         0.017033     -0.682742      0.157168
N       0.33962      3.31164      6.44741         0.958255      2.241687     -0.134839
