  # total energy =   -19.29985043 
CRSYTAL
PRIMVEC
     6.7020160000000004    0.0000000000000000    0.0000000000000000
     0.0000000000000000    6.7020160000000004    0.0000000000000000
     0.0000000000000000    0.0000000000000000    6.7020160000000004
PRESSURE
0.09784 0.64622 -0.130613 0.036731 0.114616 0.071315
PRIMCOORD
4 1
H       0.65261      3.24836      6.37384        -0.186181      0.543393     -0.569330
H       0.48609      1.54128      6.59794        -0.313319     -0.873678     -0.682068
H       0.47959      2.56321      1.25149        -0.002210      0.073144     -0.788623
N       0.63732      2.44606      0.24754         0.501563      0.258086      2.038869
