  # total energy =   -19.48233160 
CRSYTAL
PRIMVEC
     6.7020160000000004    0.0000000000000000    0.0000000000000000
     0.0000000000000000    6.7020160000000004    0.0000000000000000
     0.0000000000000000    0.0000000000000000    6.7020160000000004
PRESSURE
-0.105656 -0.236178 -0.296262 -0.191809 -0.24594 -0.00811
PRIMCOORD
4 1
H       6.65336      3.26000      6.00194         0.452531      0.151804      0.642377
H       0.63687      1.89975      6.42739         0.184642      0.513513      0.602486
H       6.68880      2.87520      0.88279        -0.074454     -0.095873      0.159503
N       0.57685      2.88972      0.05145        -0.562045     -0.568531     -1.404532
