  # total energy =   -19.30414157 
CRSYTAL
PRIMVEC
     6.7020160000000004    0.0000000000000000    0.0000000000000000
     0.0000000000000000    6.7020160000000004    0.0000000000000000
     0.0000000000000000    0.0000000000000000    6.7020160000000004
PRESSURE
0.188827 0.499982 -0.185162 -0.187864 0.027085 0.225337
PRIMCOORD
4 1
H       0.88431      3.07696      6.51416        -0.017362      0.548150     -0.607571
H       0.29262      1.47073      6.61034        -0.585008     -0.700410     -0.322403
H       0.61972      2.41455      1.35061        -0.209538     -0.362844     -0.776833
N       0.68183      2.26501      0.34037         0.812368      0.515064      1.706311
