  # total energy =   -19.35553614 
CRSYTAL
PRIMVEC
     6.7020160000000004    0.0000000000000000    0.0000000000000000
     0.0000000000000000    6.7020160000000004    0.0000000000000000
     0.0000000000000000    0.0000000000000000    6.7020160000000004
PRESSURE
-0.273773 0.13964 -1.05985 -0.004806 0.0294 -0.239909
PRIMCOORD
4 1
H       0.93657      2.91261      6.52917        -0.106677      0.700900      0.479088
H       0.01109      1.53416      6.67648         0.677176      0.621398      0.458369
H       0.54155      2.20123      1.43823         0.284802      0.664905     -1.455767
N       0.74950      2.12056      0.41680        -0.854892     -1.987717      0.518631
