  # total energy =   -19.42701218 
CRSYTAL
PRIMVEC
     6.7020160000000004    0.0000000000000000    0.0000000000000000
     0.0000000000000000    6.7020160000000004    0.0000000000000000
     0.0000000000000000    0.0000000000000000    6.7020160000000004
PRESSURE
0.26463 -0.039037 0.308335 -0.311431 0.013984 0.013573
PRIMCOORD
4 1
H       0.00772      3.34330      5.95339        -0.581661      0.330292     -0.230102
H       0.87831      2.03338      6.41990        -0.328167      0.222488      0.585072
H       0.08411      3.01052      0.89616        -0.576412     -0.302943      0.670535
N       0.52564      2.94838      0.01005         1.485741     -0.251200     -1.026410
