  # total energy =   -19.31878647 
CRSYTAL
PRIMVEC
     6.7020160000000004    0.0000000000000000    0.0000000000000000
     0.0000000000000000    6.7020160000000004    0.0000000000000000
     0.0000000000000000    0.0000000000000000    6.7020160000000004
PRESSURE
0.095779 0.049415 0.183772 -0.01421 -0.04532 0.042218
PRIMCOORD
4 1
H       6.57678      3.45851      5.35686        -0.091979     -0.006662     -0.535967
H       0.90823      4.69938      6.06483         0.026841      0.057868     -0.447197
H       6.34948      4.01889      0.26468        -0.178262     -0.038831     -0.108424
N       0.20469      3.98844      6.12990         0.244638     -0.013045      1.090810
