  # total energy =   -19.36835966 
CRSYTAL
PRIMVEC
     6.7020160000000004    0.0000000000000000    0.0000000000000000
     0.0000000000000000    6.7020160000000004    0.0000000000000000
     0.0000000000000000    0.0000000000000000    6.7020160000000004
PRESSURE
0.515319 1.03308 0.850027 -0.627896 -0.454423 0.104786
PRIMCOORD
4 1
H       1.48239      0.69753      0.23043         0.847833      0.153180     -1.023285
H       0.17937      1.45903      0.66409        -0.400711      0.612721     -0.183174
H       0.73596      0.26073      1.42670        -0.815889     -2.134521      1.815695
N       1.04726      1.09818      1.04218         0.369378      1.367200     -0.607904
