  # total energy =   -19.32713218 
CRSYTAL
PRIMVEC
     6.7020160000000004    0.0000000000000000    0.0000000000000000
     0.0000000000000000    6.7020160000000004    0.0000000000000000
     0.0000000000000000    0.0000000000000000    6.7020160000000004
PRESSURE
0.127882 -0.839681 -0.004774 0.060429 -0.115105 -0.07358
PRIMCOORD
4 1
H       0.55665      3.28725      6.29624        -0.198392     -0.611698      0.560485
H       0.50600      1.54452      6.53834        -0.069597      1.158729      0.423906
H       0.42580      2.61089      1.19678        -0.384840      0.188241      0.561468
N       0.63237      2.49157      0.23371         0.652399     -0.735346     -1.545999
