  # total energy =   -19.38666901 
CRSYTAL
PRIMVEC
     6.7020160000000004    0.0000000000000000    0.0000000000000000
     0.0000000000000000    6.7020160000000004    0.0000000000000000
     0.0000000000000000    0.0000000000000000    6.7020160000000004
PRESSURE
-0.665584 0.001497 -1.1265 -0.297185 -0.131982 0.153265
PRIMCOORD
4 1
H       6.60088      3.70395      5.69560         0.503027      0.199737      0.446246
H       1.40269      3.23917      6.46632        -0.941613      0.266279     -0.496544
H       0.10986      3.67099      0.73617         0.137230     -0.414155     -1.858470
N       0.36537      3.25871      6.48964         0.301280     -0.052136      1.908186
