  # total energy =   -19.19143916 
CRSYTAL
PRIMVEC
     6.7020160000000004    0.0000000000000000    0.0000000000000000
     0.0000000000000000    6.7020160000000004    0.0000000000000000
     0.0000000000000000    0.0000000000000000    6.7020160000000004
PRESSURE
1.12988 0.267507 1.43222 0.192016 -0.598602 0.311
PRIMCOORD
4 1
H       6.52323      3.50464      5.39498        -0.437863     -0.181466     -0.507326
H       1.12432      4.22694      6.13366         1.190240      0.786867      0.207067
H       6.43175      3.84568      0.32148        -1.736741      0.365039      2.926022
N       0.24843      3.80788      6.23667         0.983486     -0.970923     -2.626029
