  # total energy =   -19.19282265 
CRSYTAL
PRIMVEC
     6.7020160000000004    0.0000000000000000    0.0000000000000000
     0.0000000000000000    6.7020160000000004    0.0000000000000000
     0.0000000000000000    0.0000000000000000    6.7020160000000004
PRESSURE
-0.455804 -0.200999 0.655 0.207655 0.090657 -0.532505
PRIMCOORD
4 1
H       6.64178      3.25021      6.14762         0.249490      0.371952     -0.805963
H       0.45185      1.80790      6.56817         1.003740      0.408731     -0.812427
H       6.60683      2.69855      0.83652         0.715107      0.944605      0.719241
N       0.62028      2.82379      0.07980        -1.968949     -1.724178      0.899125
