  # total energy =   -19.20828932 
CRSYTAL
PRIMVEC
     6.7020160000000004    0.0000000000000000    0.0000000000000000
     0.0000000000000000    6.7020160000000004    0.0000000000000000
     0.0000000000000000    0.0000000000000000    6.7020160000000004
PRESSURE
1.02043 0.256473 1.3067 0.182611 -0.536811 0.288664
PRIMCOORD
4 1
H       6.52676      3.50222      5.39113        -0.426473     -0.173499     -0.445867
H       1.12211      4.23945      6.12825         1.048881      0.732673      0.235096
H       6.42806      3.84838      0.32247        -1.585349      0.344636      2.683075
N       0.24691      3.81312      6.23399         0.962130     -0.904339     -2.472773
