  # total energy =   -19.23556222 
CRSYTAL
PRIMVEC
     6.7020160000000004    0.0000000000000000    0.0000000000000000
     0.0000000000000000    6.7020160000000004    0.0000000000000000
     0.0000000000000000    0.0000000000000000    6.7020160000000004
PRESSURE
-0.066387 -0.115264 1.25319 0.196412 -0.479158 0.136096
PRIMCOORD
4 1
H       6.67271      3.55261      5.85973         0.100444     -0.087574     -0.324295
H       1.22808      2.45417      6.50371        -0.541957      0.454212     -0.379511
H       0.12247      3.21356      0.80278        -0.982351      0.393093      2.339552
N       0.44415      3.09459      6.61034         1.422651     -0.758018     -1.636700
