  # total energy =   -19.44739608 
CRSYTAL
PRIMVEC
     6.7020160000000004    0.0000000000000000    0.0000000000000000
     0.0000000000000000    6.7020160000000004    0.0000000000000000
     0.0000000000000000    0.0000000000000000    6.7020160000000004
PRESSURE
-0.002158 0.037767 -0.545196 -0.251551 -0.299837 0.022523
PRIMCOORD
4 1
H       6.59908      3.74870      5.70468         0.375990      0.264778      0.100853
H       1.37240      3.34792      6.47988         0.104328      0.094402     -0.747587
H       0.12422      3.72642      0.68646        -0.299406     -0.294756     -1.022869
N       0.35874      3.27256      6.47630        -0.182122     -0.063668      1.669542
