  # total energy =   -19.15058570 
CRSYTAL
PRIMVEC
     6.7020160000000004    0.0000000000000000    0.0000000000000000
     0.0000000000000000    6.7020160000000004    0.0000000000000000
     0.0000000000000000    0.0000000000000000    6.7020160000000004
PRESSURE
0.563146 -0.321512 0.835784 -0.420433 0.084339 0.528401
PRIMCOORD
4 1
H       0.94811      2.85965      0.20153         0.883113     -0.141219     -1.325959
H       6.58215      1.78212      0.14732        -1.027151     -0.751202     -0.635755
H       0.56465      2.30614      1.40450         0.065238     -1.211942      1.054354
N       0.81762      1.87560      0.49865         0.077922      2.103862      0.908436
