  # total energy =   -19.30656467 
CRSYTAL
PRIMVEC
     6.7020160000000004    0.0000000000000000    0.0000000000000000
     0.0000000000000000    6.7020160000000004    0.0000000000000000
     0.0000000000000000    0.0000000000000000    6.7020160000000004
PRESSURE
-0.468771 -1.23707 -0.712957 0.155183 0.5449 0.259629
PRIMCOORD
4 1
H       0.43161      3.85818      5.26551        -0.770131      1.098655      0.416340
H       6.59573      5.57642      5.32203         0.082420     -1.505831      0.356534
H       6.03620      4.43070      6.53723         0.896769      0.221198     -1.313378
N       0.04281      4.66031      5.80011        -0.209415      0.186000      0.542004
