  # total energy =   -19.30762198 
CRSYTAL
PRIMVEC
     6.7020160000000004    0.0000000000000000    0.0000000000000000
     0.0000000000000000    6.7020160000000004    0.0000000000000000
     0.0000000000000000    0.0000000000000000    6.7020160000000004
PRESSURE
0.095511 0.539522 -0.169228 -0.003995 0.11116 0.047744
PRIMCOORD
4 1
H       0.64167      3.25120      6.36598        -0.200630      0.544067     -0.539475
H       0.49021      1.54244      6.59234        -0.275447     -0.649139     -0.568298
H       0.47306      2.56870      1.24860        -0.005643      0.076873     -0.809187
N       0.63641      2.45219      0.24510         0.481793      0.028830      1.916518
