  # total energy =   -19.23584124 
CRSYTAL
PRIMVEC
     6.7020160000000004    0.0000000000000000    0.0000000000000000
     0.0000000000000000    6.7020160000000004    0.0000000000000000
     0.0000000000000000    0.0000000000000000    6.7020160000000004
PRESSURE
0.047481 0.082033 -0.908415 -0.272055 0.565031 -0.034003
PRIMCOORD
4 1
H       6.68678      3.56553      5.75025        -0.265320      0.230818      0.268205
H       1.29943      2.75520      6.35599         0.392407     -0.110235      0.718456
H       0.02633      3.39576      0.80785         0.987619     -0.366348     -1.398712
N       0.41487      3.16863      6.57029        -1.114192      0.245721      0.410917
