  # total energy =   -19.33440090 
CRSYTAL
PRIMVEC
     6.7020160000000004    0.0000000000000000    0.0000000000000000
     0.0000000000000000    6.7020160000000004    0.0000000000000000
     0.0000000000000000    0.0000000000000000    6.7020160000000004
PRESSURE
0.096775 -0.018638 -0.173181 -0.04272 0.057703 -0.025744
PRIMCOORD
4 1
H       0.61236      3.26347      6.34132        -0.231708      0.196850     -0.208134
H       0.49775      1.54014      6.57324        -0.158089      0.199519     -0.151855
H       0.45670      2.58317      1.23329        -0.089828      0.111054     -0.487904
N       0.63452      2.46730      0.24038         0.479859     -0.507458      0.848277
