  # total energy =   -19.19018133 
CRSYTAL
PRIMVEC
     6.7020160000000004    0.0000000000000000    0.0000000000000000
     0.0000000000000000    6.7020160000000004    0.0000000000000000
     0.0000000000000000    0.0000000000000000    6.7020160000000004
PRESSURE
0.850755 0.37405 1.48782 -0.681533 0.241613 -0.105952
PRIMCOORD
4 1
H       1.65388      1.69028      0.17850         0.794371     -0.033463     -0.196388
H       6.69513      1.60589      0.38034        -1.094941      0.100207     -0.488611
H       0.94389      1.09320      1.62341         0.582133     -1.466400      2.921850
N       0.88715      1.49182      0.76854        -0.282736      1.400336     -2.235680
