  # total energy =   -19.37398220 
CRSYTAL
PRIMVEC
     6.7020160000000004    0.0000000000000000    0.0000000000000000
     0.0000000000000000    6.7020160000000004    0.0000000000000000
     0.0000000000000000    0.0000000000000000    6.7020160000000004
PRESSURE
-0.176391 0.290211 -0.93901 0.02797 0.098782 -0.12808
PRIMCOORD
4 1
H       0.93588      2.90460      6.53851        -0.055024      0.838494      0.394774
H       0.00429      1.54950      6.68902         0.414539      0.348843      0.250446
H       0.53631      2.19607      1.43852         0.325885      0.680821     -1.381585
N       0.75298      2.11104      0.42019        -0.685310     -1.869055      0.736489
