  # total energy =   -19.45324702 
CRSYTAL
PRIMVEC
     6.7020160000000004    0.0000000000000000    0.0000000000000000
     0.0000000000000000    6.7020160000000004    0.0000000000000000
     0.0000000000000000    0.0000000000000000    6.7020160000000004
PRESSURE
-0.267328 0.047288 -1.06755 0.151405 0.15498 0.078259
PRIMCOORD
4 1
H       1.21379      2.61689      0.09276         0.101715      0.010407      0.646932
H       6.56720      1.74081      0.17739         0.488479     -0.179730      0.209754
H       0.67317      1.93993      1.60093         0.505746      0.211773     -1.556092
N       0.82859      1.78826      0.56119        -1.096022     -0.040810      0.699721
