  # total energy =   -19.48813165 
CRSYTAL
PRIMVEC
     6.7020160000000004    0.0000000000000000    0.0000000000000000
     0.0000000000000000    6.7020160000000004    0.0000000000000000
     0.0000000000000000    0.0000000000000000    6.7020160000000004
PRESSURE
0.207608 0.10629 0.513567 0.408579 0.081177 0.064865
PRIMCOORD
4 1
H       0.93062      2.91589      6.62219        -0.065296     -0.074835      0.458285
H       6.65056      1.62761      0.04620        -0.432231     -0.336320     -0.427619
H       0.52634      2.21995      1.38957        -0.056635      0.626955      1.109612
N       0.77311      2.04794      0.44265         0.555348     -0.215429     -1.141034
