  # total energy =   -19.43365780 
CRSYTAL
PRIMVEC
     6.7020160000000004    0.0000000000000000    0.0000000000000000
     0.0000000000000000    6.7020160000000004    0.0000000000000000
     0.0000000000000000    0.0000000000000000    6.7020160000000004
PRESSURE
0.357172 0.215586 0.96351 0.305611 -0.436488 -0.228783
PRIMCOORD
4 1
H       6.62112      3.83457      5.72000        -0.011109      0.063553     -0.432389
H       1.34109      3.51539      6.44404         0.438530     -0.225807     -0.578001
H       0.11373      3.80030      0.56890        -1.014769      0.761650      1.842935
N       0.34837      3.29209      6.46340         0.588114     -0.599397     -0.831804
