  # total energy =   -19.42929881 
CRSYTAL
PRIMVEC
     6.7020160000000004    0.0000000000000000    0.0000000000000000
     0.0000000000000000    6.7020160000000004    0.0000000000000000
     0.0000000000000000    0.0000000000000000    6.7020160000000004
PRESSURE
-0.011083 0.445696 -0.863559 -0.290612 0.359695 -0.090064
PRIMCOORD
4 1
H       6.69333      3.28379      5.96508        -0.320605      0.467356      0.270092
H       0.75757      1.99012      6.39552         0.074375     -0.730575      0.632197
H       0.02014      2.96280      0.93459         0.501190     -0.480325     -1.313798
N       0.55130      2.91792      0.03006        -0.254490      0.745332      0.412342
