  # total energy =   -19.24644605 
CRSYTAL
PRIMVEC
     6.7020160000000004    0.0000000000000000    0.0000000000000000
     0.0000000000000000    6.7020160000000004    0.0000000000000000
     0.0000000000000000    0.0000000000000000    6.7020160000000004
PRESSURE
0.301284 -0.020805 -0.606378 0.22684 0.138046 -0.016549
PRIMCOORD
4 1
H       1.61951      1.83480      0.13607         0.529152     -0.106422      0.438850
H       6.66724      1.59194      0.32025        -0.189761     -0.037589      0.039552
H       0.91356      1.18624      1.69627         0.518355      0.363815     -0.884832
N       0.87647      1.53897      0.73717        -0.857719     -0.220333      0.407610
