  # total energy =   -19.32708424 
CRSYTAL
PRIMVEC
     6.7020160000000004    0.0000000000000000    0.0000000000000000
     0.0000000000000000    6.7020160000000004    0.0000000000000000
     0.0000000000000000    0.0000000000000000    6.7020160000000004
PRESSURE
-0.384834 -0.228539 -1.09195 -0.023129 -0.108382 -0.441097
PRIMCOORD
4 1
H       0.93719      2.93668      6.51112        -0.235627      0.266342      0.710266
H       0.03313      1.50333      6.65081         1.030483      1.106670      0.803578
H       0.55609      2.21871      1.42616         0.126463      0.615437     -1.213933
N       0.74076      2.14202      0.40900        -0.921367     -1.988826     -0.298663
