  # total energy =   -19.31300316 
CRSYTAL
PRIMVEC
     6.7020160000000004    0.0000000000000000    0.0000000000000000
     0.0000000000000000    6.7020160000000004    0.0000000000000000
     0.0000000000000000    0.0000000000000000    6.7020160000000004
PRESSURE
0.094671 0.454726 -0.180698 -0.019846 0.105593 0.033558
PRIMCOORD
4 1
H       0.63613      3.25308      6.36163        -0.208285      0.511041     -0.500810
H       0.49198      1.54239      6.58906        -0.252775     -0.501475     -0.496296
H       0.46986      2.57146      1.24646        -0.013651      0.080973     -0.786227
N       0.63600      2.45520      0.24403         0.474887     -0.090032      1.783134
