  # total energy =   -19.45317790 
CRSYTAL
PRIMVEC
     6.7020160000000004    0.0000000000000000    0.0000000000000000
     0.0000000000000000    6.7020160000000004    0.0000000000000000
     0.0000000000000000    0.0000000000000000    6.7020160000000004
PRESSURE
-0.879463 -0.126613 -0.828186 -0.302459 0.150769 0.014311
PRIMCOORD
4 1
H       6.46343      3.79138      5.51280         0.493928      0.091568      0.422366
H       1.26581      3.95007      6.31598        -1.031890     -0.219956     -0.192185
H       6.52128      3.95155      0.49285         0.781610     -0.586619     -1.420866
N       0.31050      3.52862      6.34674        -0.242976      0.714547      1.191452
