  # total energy =   -19.43585897 
CRSYTAL
PRIMVEC
     6.7020160000000004    0.0000000000000000    0.0000000000000000
     0.0000000000000000    6.7020160000000004    0.0000000000000000
     0.0000000000000000    0.0000000000000000    6.7020160000000004
PRESSURE
0.059553 0.633878 -0.528383 -0.146865 0.213611 0.144479
PRIMCOORD
4 1
H       0.26189      3.27552      6.21970        -0.138620      0.341887      0.014276
H       0.51415      1.71524      6.45821        -0.382662     -1.194544      0.155184
H       0.19295      2.75799      1.10726         0.157364     -0.599891     -0.972877
N       0.63233      2.60525      0.17940         0.362220      1.453014      0.802828
