  # total energy =   -19.38619663 
CRSYTAL
PRIMVEC
     6.7020160000000004    0.0000000000000000    0.0000000000000000
     0.0000000000000000    6.7020160000000004    0.0000000000000000
     0.0000000000000000    0.0000000000000000    6.7020160000000004
PRESSURE
-0.259426 -0.049244 0.69443 -0.005235 0.005123 -0.244453
PRIMCOORD
4 1
H       1.46006      2.40880      0.17990        -0.693971     -0.188819     -0.026021
H       6.60394      1.61651      0.19749         0.028707      0.378009      0.065198
H       0.87903      1.75202      1.58340        -0.279765      0.066368      1.364541
N       0.81845      1.73492      0.60279         0.944900     -0.255870     -1.402828
