  # total energy =   -19.34964317 
CRSYTAL
PRIMVEC
     6.7020160000000004    0.0000000000000000    0.0000000000000000
     0.0000000000000000    6.7020160000000004    0.0000000000000000
     0.0000000000000000    0.0000000000000000    6.7020160000000004
PRESSURE
0.097828 -0.531086 0.808762 -0.022987 -0.363152 0.308825
PRIMCOORD
4 1
H       6.69966      3.40959      5.93676        -0.143406     -0.250163      0.109915
H       0.97005      2.07133      6.46601        -0.799380      1.014123      0.229857
H       0.12268      3.03638      0.87543        -1.095402     -0.002287      1.893695
N       0.50741      2.97424      6.69280         2.038674     -0.761995     -2.234243
