  # total energy =   -19.32633736 
CRSYTAL
PRIMVEC
     6.7020160000000004    0.0000000000000000    0.0000000000000000
     0.0000000000000000    6.7020160000000004    0.0000000000000000
     0.0000000000000000    0.0000000000000000    6.7020160000000004
PRESSURE
0.215363 0.467081 0.198351 0.014861 0.043517 0.234253
PRIMCOORD
4 1
H       0.89836      3.05606      6.51075        -0.069126      0.352761     -0.320442
H       0.26409      1.47846      6.61392        -0.684371     -0.798738     -0.360346
H       0.62116      2.38437      1.34332        -0.259103     -0.133883      0.064471
N       0.68836      2.24767      0.35172         1.012639      0.579184      0.615503
