  # total energy =   -19.26031608 
CRSYTAL
PRIMVEC
     6.7020160000000004    0.0000000000000000    0.0000000000000000
     0.0000000000000000    6.7020160000000004    0.0000000000000000
     0.0000000000000000    0.0000000000000000    6.7020160000000004
PRESSURE
0.327429 0.160709 -0.389402 -0.218472 0.452374 -0.169817
PRIMCOORD
4 1
H       6.68837      3.56824      5.74589        -0.461356      0.391868     -0.013515
H       1.30371      2.80554      6.35162         0.750940     -0.223120      0.681966
H       0.03283      3.41453      0.78082         0.688239     -0.148219     -0.628024
N       0.40956      3.17965      6.56427        -0.977070     -0.020602     -0.040412
