  # total energy =   -19.31437375 
CRSYTAL
PRIMVEC
     6.7020160000000004    0.0000000000000000    0.0000000000000000
     0.0000000000000000    6.7020160000000004    0.0000000000000000
     0.0000000000000000    0.0000000000000000    6.7020160000000004
PRESSURE
-0.209131 -0.018851 -0.427967 -0.025148 0.187879 -0.076115
PRIMCOORD
4 1
H       6.57669      3.46023      5.34050        -0.089031      0.160960      0.304481
H       1.02775      4.52224      6.06615        -0.347981     -0.061584      0.155047
H       6.36890      3.94044      0.32355         0.287683      0.090104     -0.612502
N       0.21669      3.92658      6.16919         0.150428     -0.189453      0.153867
