  # total energy =   -19.31863954 
CRSYTAL
PRIMVEC
     6.7020160000000004    0.0000000000000000    0.0000000000000000
     0.0000000000000000    6.7020160000000004    0.0000000000000000
     0.0000000000000000    0.0000000000000000    6.7020160000000004
PRESSURE
-0.211337 -0.584739 -0.065185 0.270474 -0.238345 0.434881
PRIMCOORD
4 1
H       6.68411      3.47503      5.92151         0.245816     -0.702380      0.368914
H       1.04758      2.14055      6.52264        -0.859176      0.939674     -0.380496
H       0.13568      3.06399      0.90045        -0.412844      0.128055      0.126430
N       0.49153      3.00103      6.66770         1.027052     -0.365157     -0.115878
