  # total energy =   -19.29183319 
CRSYTAL
PRIMVEC
     6.7020160000000004    0.0000000000000000    0.0000000000000000
     0.0000000000000000    6.7020160000000004    0.0000000000000000
     0.0000000000000000    0.0000000000000000    6.7020160000000004
PRESSURE
1.1134 0.087004 0.991279 0.622069 -0.187757 0.013805
PRIMCOORD
4 1
H       6.59078      3.94752      5.60743        -0.611539     -0.701281     -0.421012
H       1.19850      3.90039      6.26006         1.691110      0.102814      0.459805
H       6.60719      3.96063      0.40534        -0.847881      0.882522      2.241613
N       0.32250      3.43863      6.39358        -0.231739     -0.284379     -2.280672
