  # total energy =   -19.40383930 
CRSYTAL
PRIMVEC
     6.7020160000000004    0.0000000000000000    0.0000000000000000
     0.0000000000000000    6.7020160000000004    0.0000000000000000
     0.0000000000000000    0.0000000000000000    6.7020160000000004
PRESSURE
-0.842052 -1.10623 -0.323255 0.254134 0.214689 0.308038
PRIMCOORD
4 1
H       0.39192      3.98461      5.23810        -0.518337      1.202950      0.021606
H       6.24910      5.52988      5.10338         0.874123     -1.217293      0.334166
H       5.91879      4.45135      6.31364         1.223111      0.539851     -0.693484
N       0.02923      4.83423      5.73772        -1.577987     -0.525579      0.337086
