  # total energy =   -19.30316212 
CRSYTAL
PRIMVEC
     6.7020160000000004    0.0000000000000000    0.0000000000000000
     0.0000000000000000    6.7020160000000004    0.0000000000000000
     0.0000000000000000    0.0000000000000000    6.7020160000000004
PRESSURE
0.043217 0.111779 0.064129 0.097514 0.08565 0.038445
PRIMCOORD
4 1
H       6.54261      3.48734      5.36652        -0.265290     -0.017547      0.077769
H       1.11730      4.31498      6.10078        -0.081453      0.207795      0.408611
H       6.39566      3.86641      0.34844        -0.086848      0.228729      0.299184
N       0.23905      3.84176      6.21769         0.433698     -0.418282     -0.785911
