  # total energy =   -19.44730310 
CRSYTAL
PRIMVEC
     6.7020160000000004    0.0000000000000000    0.0000000000000000
     0.0000000000000000    6.7020160000000004    0.0000000000000000
     0.0000000000000000    0.0000000000000000    6.7020160000000004
PRESSURE
0.445117 0.223219 0.76037 0.197936 -0.455901 -0.169149
PRIMCOORD
4 1
H       6.61391      3.80935      5.71806         0.073206      0.182870     -0.361924
H       1.34442      3.47018      6.45998         0.662386     -0.099122     -0.701188
H       0.12349      3.77695      0.59394        -0.961271      0.610743      1.404550
N       0.35116      3.28710      6.46682         0.225497     -0.694172     -0.341131
