  # total energy =   -19.15040938 
CRSYTAL
PRIMVEC
     6.7020160000000004    0.0000000000000000    0.0000000000000000
     0.0000000000000000    6.7020160000000004    0.0000000000000000
     0.0000000000000000    0.0000000000000000    6.7020160000000004
PRESSURE
-0.904105 -0.815268 -1.25583 -0.357662 0.565432 -0.568091
PRIMCOORD
4 1
H       6.56531      3.45177      5.32925         0.306229      0.833807      0.328527
H       0.85966      4.83793      6.03750        -1.185644     -1.338546     -0.479446
H       6.28019      4.06900      0.29094         1.377534     -0.133427     -2.405365
N       0.20001      4.02626      6.10501        -0.497707      0.638776      2.555903
