  # total energy =   -19.21241830 
CRSYTAL
PRIMVEC
     6.7020160000000004    0.0000000000000000    0.0000000000000000
     0.0000000000000000    6.7020160000000004    0.0000000000000000
     0.0000000000000000    0.0000000000000000    6.7020160000000004
PRESSURE
-1.06217 -0.314093 -1.01178 0.607254 -0.202997 0.283679
PRIMCOORD
4 1
H       1.75562      1.47269      0.23507        -1.076977     -0.021503      0.115115
H       6.66391      1.62349      0.43182         1.029858     -0.433595      0.234835
H       1.03295      0.86531      1.69877        -0.681656      1.086403     -1.958987
N       0.90081      1.43083      0.80401         0.729075     -0.630764      1.609139
