  # total energy =   -19.46299804 
CRSYTAL
PRIMVEC
     6.7020160000000004    0.0000000000000000    0.0000000000000000
     0.0000000000000000    6.7020160000000004    0.0000000000000000
     0.0000000000000000    0.0000000000000000    6.7020160000000004
PRESSURE
-0.100074 0.097019 -0.271115 -0.244911 -0.021489 0.082907
PRIMCOORD
4 1
H       6.44612      3.72983      5.50545         0.263300      0.350893     -0.118137
H       1.23743      3.95355      6.33036         0.084535      0.274104     -0.483974
H       6.52397      3.92529      0.47107         0.210871     -0.200755     -0.711318
N       0.30539      3.56446      6.33197        -0.556999     -0.422583      1.313968
