  # total energy =   -19.30673296 
CRSYTAL
PRIMVEC
     6.7020160000000004    0.0000000000000000    0.0000000000000000
     0.0000000000000000    6.7020160000000004    0.0000000000000000
     0.0000000000000000    0.0000000000000000    6.7020160000000004
PRESSURE
0.306097 -0.323139 1.17973 0.155572 -0.076176 0.318795
PRIMCOORD
4 1
H       1.02328      2.80094      0.16510         0.631233     -0.590713     -0.463725
H       6.57197      1.79597      0.16584        -0.452497     -0.705200     -0.443608
H       0.59746      2.18154      1.42979        -0.086192     -0.192597      2.096333
N       0.82402      1.83881      0.52405        -0.092800      1.488386     -1.190190
