  # total energy =   -19.35187489 
CRSYTAL
PRIMVEC
     6.7020160000000004    0.0000000000000000    0.0000000000000000
     0.0000000000000000    6.7020160000000004    0.0000000000000000
     0.0000000000000000    0.0000000000000000    6.7020160000000004
PRESSURE
-0.033972 0.114686 0.232133 -0.018465 -0.408198 -0.079159
PRIMCOORD
4 1
H       6.43283      3.58626      5.44581         0.398182      0.338274      0.107887
H       1.22074      4.03925      6.28198        -0.092247      0.203972     -0.400734
H       6.47803      3.84938      0.42007        -0.515499      0.303271      0.649842
N       0.28319      3.67478      6.28988         0.209692     -0.845131     -0.357782
