  # total energy =   -19.21304471 
CRSYTAL
PRIMVEC
     6.7020160000000004    0.0000000000000000    0.0000000000000000
     0.0000000000000000    6.7020160000000004    0.0000000000000000
     0.0000000000000000    0.0000000000000000    6.7020160000000004
PRESSURE
-0.918295 -0.130753 -1.24965 -0.0149 0.68042 -0.304459
PRIMCOORD
4 1
H       6.55688      3.46960      5.33924        -0.040681      0.262121      0.697380
H       1.10897      4.40869      6.07564        -1.177587     -0.442504      0.518846
H       6.35618      3.89238      0.38349         1.239027      0.159542     -1.886082
N       0.23018      3.87555      6.19714        -0.020330      0.021311      0.670515
