  # total energy =   -19.43205582 
CRSYTAL
PRIMVEC
     6.7020160000000004    0.0000000000000000    0.0000000000000000
     0.0000000000000000    6.7020160000000004    0.0000000000000000
     0.0000000000000000    0.0000000000000000    6.7020160000000004
PRESSURE
0.302596 0.189326 0.973903 0.319053 -0.413411 -0.244199
PRIMCOORD
4 1
H       6.62368      3.84360      5.72016        -0.035453      0.010539     -0.440427
H       1.34053      3.53112      6.43765         0.325887     -0.278635     -0.522514
H       0.10903      3.80946      0.56225        -0.990443      0.746058      1.869938
N       0.34743      3.29380      6.46213         0.701206     -0.477872     -0.906406
