  # total energy =   -19.43484541 
CRSYTAL
PRIMVEC
     6.7020160000000004    0.0000000000000000    0.0000000000000000
     0.0000000000000000    6.7020160000000004    0.0000000000000000
     0.0000000000000000    0.0000000000000000    6.7020160000000004
PRESSURE
0.14555 0.363486 -0.481281 -0.348037 0.330839 -0.109999
PRIMCOORD
4 1
H       0.00333      3.30392      5.96093        -0.586601      0.525546     -0.083847
H       0.80806      2.01247      6.39994        -0.010154     -0.545521      0.627480
H       0.04551      2.98681      0.92512         0.187533     -0.475325     -0.828707
N       0.54033      2.93029      0.02164         0.408873      0.495219      0.285244
