  # total energy =   -19.27855805 
CRSYTAL
PRIMVEC
     6.7020160000000004    0.0000000000000000    0.0000000000000000
     0.0000000000000000    6.7020160000000004    0.0000000000000000
     0.0000000000000000    0.0000000000000000    6.7020160000000004
PRESSURE
-0.136825 -0.504573 -1.3204 -0.032477 0.580996 -0.040391
PRIMCOORD
4 1
H       0.26191      3.80420      5.13155        -0.798322      0.628746      1.622594
H       0.13586      5.42257      5.37070        -0.687014     -0.497037      1.039920
H       6.05307      4.35488      6.58996         0.201218      0.224332     -1.034674
N       0.07916      4.52446      5.88516         1.283672     -0.356722     -1.627594
