  # total energy =   -19.30772097 
CRSYTAL
PRIMVEC
     6.7020160000000004    0.0000000000000000    0.0000000000000000
     0.0000000000000000    6.7020160000000004    0.0000000000000000
     0.0000000000000000    0.0000000000000000    6.7020160000000004
PRESSURE
0.213852 0.577728 -0.06501 -0.115595 0.044886 0.266358
PRIMCOORD
4 1
H       0.88902      3.06876      6.51431        -0.014463      0.552954     -0.561887
H       0.28487      1.47543      6.61252        -0.688686     -0.878013     -0.409056
H       0.62075      2.40522      1.34935        -0.221143     -0.302803     -0.572139
N       0.68383      2.25916      0.34389         0.924782      0.627397      1.542585
