  # total energy =   -19.45319340 
CRSYTAL
PRIMVEC
     6.7020160000000004    0.0000000000000000    0.0000000000000000
     0.0000000000000000    6.7020160000000004    0.0000000000000000
     0.0000000000000000    0.0000000000000000    6.7020160000000004
PRESSURE
-0.376435 -0.305774 -0.479236 0.264089 0.487401 -0.215138
PRIMCOORD
4 1
H       0.11545      3.74671      5.19177        -0.173918      0.051797      0.006478
H       0.14741      5.39424      5.47119        -0.424439     -0.490027      0.361131
H       6.00389      4.31919      6.56752         0.927384      0.481954     -1.131894
N       0.11091      4.46517      5.91131        -0.328057     -0.043517      0.763794
