  # total energy =   -19.17103124 
CRSYTAL
PRIMVEC
     6.7020160000000004    0.0000000000000000    0.0000000000000000
     0.0000000000000000    6.7020160000000004    0.0000000000000000
     0.0000000000000000    0.0000000000000000    6.7020160000000004
PRESSURE
-0.928709 -0.009199 -1.02669 -0.15628 -0.649048 -0.310388
PRIMCOORD
4 1
H       1.58230      2.25443      0.24921        -0.981220     -0.103806     -0.568294
H       6.59785      1.55772      0.20448         0.841734      0.526635      0.488169
H       1.00235      1.63521      1.67155        -1.184536     -0.102830     -1.847750
N       0.82011      1.68994      0.62742         1.323025     -0.319635      1.926901
