  # total energy =   -19.44665756 
CRSYTAL
PRIMVEC
     6.7020160000000004    0.0000000000000000    0.0000000000000000
     0.0000000000000000    6.7020160000000004    0.0000000000000000
     0.0000000000000000    0.0000000000000000    6.7020160000000004
PRESSURE
0.288371 0.456213 -0.001006 0.304612 0.253074 0.1918
PRIMCOORD
4 1
H       0.93290      2.89912      6.58067        -0.001232      0.611421      0.392077
H       6.68403      1.60445      0.03092        -0.700678     -0.528803     -0.526791
H       0.52636      2.19621      1.41111         0.195954      0.713668      0.022071
N       0.76448      2.07468      0.43339         0.505976     -0.795262      0.112608
