  # total energy =   -19.51810293 
CRSYTAL
PRIMVEC
     6.7020160000000004    0.0000000000000000    0.0000000000000000
     0.0000000000000000    6.7020160000000004    0.0000000000000000
     0.0000000000000000    0.0000000000000000    6.7020160000000004
PRESSURE
0.134112 0.108852 -0.047858 -0.088818 -0.009186 -0.099709
PRIMCOORD
4 1
H       1.56987      1.00336      0.14995         0.205862     -0.036615      0.161758
H       0.07148      1.42346      0.47555        -0.167271      0.208065      0.101741
H       0.84231      0.46562      1.50570         0.121702     -0.170987      0.149724
N       0.97746      1.29680      0.93238        -0.160632     -0.000699     -0.412686
