  # total energy =   -19.35119509 
CRSYTAL
PRIMVEC
     6.7020160000000004    0.0000000000000000    0.0000000000000000
     0.0000000000000000    6.7020160000000004    0.0000000000000000
     0.0000000000000000    0.0000000000000000    6.7020160000000004
PRESSURE
0.773837 0.986632 0.754831 -0.691913 -0.230258 -0.193378
PRIMCOORD
4 1
H       1.50532      0.92427      0.16128         1.051580     -0.074283     -0.605910
H       0.10274      1.37467      0.49498        -1.009633      0.817673     -0.246321
H       0.80065      0.43847      1.42441        -0.129903     -2.090930      1.775642
N       0.99287      1.27115      0.95547         0.087702      1.346450     -0.923559
