  # total energy =   -19.31418320 
CRSYTAL
PRIMVEC
     6.7020160000000004    0.0000000000000000    0.0000000000000000
     0.0000000000000000    6.7020160000000004    0.0000000000000000
     0.0000000000000000    0.0000000000000000    6.7020160000000004
PRESSURE
-0.015851 -0.629261 -0.158249 -0.181848 -0.107156 -0.398919
PRIMCOORD
4 1
H       1.47859      0.81892      0.14795         0.485605      0.546458      0.313661
H       0.09088      1.35771      0.51004         0.103848      0.766636      0.302032
H       0.74396      0.30094      1.41106         0.589770      1.108205      0.257988
N       1.01285      1.24159      0.98183        -1.179192     -2.420429     -0.873966
