  # total energy =   -19.21767827 
CRSYTAL
PRIMVEC
     6.7020160000000004    0.0000000000000000    0.0000000000000000
     0.0000000000000000    6.7020160000000004    0.0000000000000000
     0.0000000000000000    0.0000000000000000    6.7020160000000004
PRESSURE
-0.158643 0.135524 -0.314489 -0.213025 -0.460077 -0.021907
PRIMCOORD
4 1
H       1.59369      2.18702      0.26035        -0.329768      0.328463     -0.912154
H       6.62625      1.55404      0.22489        -0.180904      0.299061     -0.011035
H       1.01340      1.58572      1.65343        -1.055039     -0.145718     -0.919801
N       0.82387      1.67157      0.64078         1.564944     -0.482147      1.841351
