  # total energy =   -19.45115155 
CRSYTAL
PRIMVEC
     6.7020160000000004    0.0000000000000000    0.0000000000000000
     0.0000000000000000    6.7020160000000004    0.0000000000000000
     0.0000000000000000    0.0000000000000000    6.7020160000000004
PRESSURE
-0.528664 -0.318833 -0.473286 0.214826 -0.008042 0.090729
PRIMCOORD
4 1
H       1.12961      2.71207      0.10736         0.111553     -0.688809      0.593317
H       6.54466      1.77519      0.16544         0.968106     -0.372125      0.300315
H       0.63027      2.04143      1.54177         0.404342     -0.041281     -0.513297
N       0.82955      1.80726      0.54640        -1.483414      1.103352     -0.381096
