  # total energy =   -19.28722564 
CRSYTAL
PRIMVEC
     6.7020160000000004    0.0000000000000000    0.0000000000000000
     0.0000000000000000    6.7020160000000004    0.0000000000000000
     0.0000000000000000    0.0000000000000000    6.7020160000000004
PRESSURE
-0.2409 -0.460481 -0.489805 0.328147 -0.137409 0.369542
PRIMCOORD
4 1
H       6.67950      3.49565      5.91832         0.296371     -0.741927      0.321704
H       1.07099      2.17660      6.54292        -0.686367      0.662547     -0.614036
H       0.13599      3.07594      0.91504        -0.119568      0.149250     -0.763286
N       0.48598      3.01142      6.65733         0.509021     -0.069391      1.055574
