  # total energy =   -19.26615410 
CRSYTAL
PRIMVEC
     6.7020160000000004    0.0000000000000000    0.0000000000000000
     0.0000000000000000    6.7020160000000004    0.0000000000000000
     0.0000000000000000    0.0000000000000000    6.7020160000000004
PRESSURE
0.77685 0.900439 0.6677 0.221519 -0.733484 0.314793
PRIMCOORD
4 1
H       6.51554      3.80558      5.19356         0.123222     -1.240528     -0.449589
H       0.17955      5.14799      5.61261         0.898859      1.294914      0.047891
H       6.05550      4.32928      6.52999        -1.808730     -0.162759      1.835954
N       0.19439      4.22973      6.03528         0.786936      0.108890     -1.434997
