  # total energy =   -19.28565500 
CRSYTAL
PRIMVEC
     6.7020160000000004    0.0000000000000000    0.0000000000000000
     0.0000000000000000    6.7020160000000004    0.0000000000000000
     0.0000000000000000    0.0000000000000000    6.7020160000000004
PRESSURE
-0.147329 0.700432 0.503895 0.125348 -0.330119 0.40585
PRIMCOORD
4 1
H       6.50949      3.79605      5.19960         0.319550     -1.041304     -0.560426
H       0.11671      5.18908      5.60963         0.972926      0.952636     -0.123180
H       5.98823      4.35739      6.49758         0.081192     -0.476342      0.929693
N       0.19487      4.25927      6.01946        -1.372898      0.563458     -0.247307
