  # total energy =   -19.36867104 
CRSYTAL
PRIMVEC
     6.7020160000000004    0.0000000000000000    0.0000000000000000
     0.0000000000000000    6.7020160000000004    0.0000000000000000
     0.0000000000000000    0.0000000000000000    6.7020160000000004
PRESSURE
0.183926 -0.420623 0.806895 -0.123031 -0.302301 0.223331
PRIMCOORD
4 1
H       0.00180      3.38930      5.94204        -0.290840     -0.067785     -0.015741
H       0.94390      2.05751      6.45065        -0.682970      0.858918      0.372269
H       0.11394      3.02887      0.87680        -1.086192     -0.078262      1.837864
N       0.51255      2.96649      6.69911         2.060118     -0.713087     -2.194604
