  # total energy =   -19.07532356 
CRSYTAL
PRIMVEC
     6.7020160000000004    0.0000000000000000    0.0000000000000000
     0.0000000000000000    6.7020160000000004    0.0000000000000000
     0.0000000000000000    0.0000000000000000    6.7020160000000004
PRESSURE
-0.727356 -1.65532 -0.702038 -0.043836 -0.061484 -0.400763
PRIMCOORD
4 1
H       1.47259      0.72357      0.14587        -0.023992      1.109617      1.026123
H       0.08052      1.37440      0.54075         1.105960      0.403914      0.693112
H       0.70483      0.18480      1.41486         0.941138      2.622335     -0.281599
N       1.03197      1.20014      1.00889        -2.023249     -4.136853     -1.438642
