  # total energy =   -19.10239905 
CRSYTAL
PRIMVEC
     6.7020160000000004    0.0000000000000000    0.0000000000000000
     0.0000000000000000    6.7020160000000004    0.0000000000000000
     0.0000000000000000    0.0000000000000000    6.7020160000000004
PRESSURE
-0.846905 0.27035 0.31489 0.48777 0.393554 -0.437776
PRIMCOORD
4 1
H       6.65829      3.26411      6.18193         0.427024      0.143285     -0.638117
H       0.42096      1.80327      6.60028         0.859358     -0.596195     -1.235500
H       6.58805      2.66326      0.87486         1.491551      1.137743     -0.060140
N       0.63333      2.78671      0.09298        -2.779237     -0.684470      1.933944
