  # total energy =   -19.26813538 
CRSYTAL
PRIMVEC
     6.7020160000000004    0.0000000000000000    0.0000000000000000
     0.0000000000000000    6.7020160000000004    0.0000000000000000
     0.0000000000000000    0.0000000000000000    6.7020160000000004
PRESSURE
0.190956 0.885674 0.654442 0.152182 -0.464608 0.397063
PRIMCOORD
4 1
H       6.51037      3.80322      5.20049         0.230110     -1.215637     -0.679427
H       0.12967      5.17327      5.61092         0.986375      1.265119     -0.158734
H       6.00950      4.35125      6.50068        -0.582648     -0.403346      1.288348
N       0.19480      4.25141      6.02381        -0.633751      0.352168     -0.451501
