  # total energy =   -19.21173576 
CRSYTAL
PRIMVEC
     6.7020160000000004    0.0000000000000000    0.0000000000000000
     0.0000000000000000    6.7020160000000004    0.0000000000000000
     0.0000000000000000    0.0000000000000000    6.7020160000000004
PRESSURE
-0.394014 -0.26375 0.689681 0.169345 0.022577 -0.51589
PRIMCOORD
4 1
H       6.64046      3.24940      6.14113         0.260865      0.369513     -0.773730
H       0.45840      1.80877      6.56153         0.993366      0.529794     -0.734901
H       6.61192      2.70578      0.83299         0.563485      0.890513      0.847441
N       0.61821      2.82812      0.07842        -1.817867     -1.788633      0.661175
