  # total energy =   -19.30758879 
CRSYTAL
PRIMVEC
     6.7020160000000004    0.0000000000000000    0.0000000000000000
     0.0000000000000000    6.7020160000000004    0.0000000000000000
     0.0000000000000000    0.0000000000000000    6.7020160000000004
PRESSURE
-0.157021 0.015231 0.181514 0.009041 -0.155965 0.185533
PRIMCOORD
4 1
H       1.74284      1.38308      0.26213        -0.338426      0.150233     -0.614838
H       6.70099      1.60803      0.46205        -0.093242     -0.241213     -0.260156
H       1.03599      0.82090      1.64023        -0.630218      0.026495     -0.127547
N       0.90885      1.40504      0.82345         1.059998      0.065269      1.001051
