  # total energy =   -19.42966564 
CRSYTAL
PRIMVEC
     6.7020160000000004    0.0000000000000000    0.0000000000000000
     0.0000000000000000    6.7020160000000004    0.0000000000000000
     0.0000000000000000    0.0000000000000000    6.7020160000000004
PRESSURE
0.061336 0.653154 -0.561325 -0.107548 0.205757 0.155844
PRIMCOORD
4 1
H       0.27044      3.27682      6.21928        -0.123086      0.290782      0.083269
H       0.51563      1.71394      6.45932        -0.398649     -1.275899      0.118538
H       0.20017      2.75565      1.11216         0.144333     -0.591959     -1.002716
N       0.63214      2.60161      0.18102         0.375768      1.577544      0.800371
