  # total energy =   -19.48570737 
CRSYTAL
PRIMVEC
     6.7020160000000004    0.0000000000000000    0.0000000000000000
     0.0000000000000000    6.7020160000000004    0.0000000000000000
     0.0000000000000000    0.0000000000000000    6.7020160000000004
PRESSURE
-0.010049 -0.403578 -0.300433 -0.299423 -0.13979 0.33808
PRIMCOORD
4 1
H       0.37699      4.05481      5.15699        -0.343327      0.937324      0.805601
H       6.24140      5.45130      5.01642         0.377690     -0.181070      0.449640
H       5.94800      4.48090      6.25888        -0.354136     -0.280520      0.426230
N       0.01887      4.86886      5.73449         0.319593     -0.475428     -1.681445
