  # total energy =   -19.48700023 
CRSYTAL
PRIMVEC
     6.7020160000000004    0.0000000000000000    0.0000000000000000
     0.0000000000000000    6.7020160000000004    0.0000000000000000
     0.0000000000000000    0.0000000000000000    6.7020160000000004
PRESSURE
-0.361791 -0.48449 -0.674709 0.381443 0.10743 0.009926
PRIMCOORD
4 1
H       1.60661      1.03674      0.14482        -0.384584      0.033982      0.624273
H       0.04989      1.45192      0.46748         0.446831     -0.126188      0.329251
H       0.86179      0.46298      1.55320         0.171047      1.088360     -1.002374
N       0.97058      1.30866      0.92139        -0.232718     -0.995945      0.048215
