  # total energy =   -19.28120421 
CRSYTAL
PRIMVEC
     6.7020160000000004    0.0000000000000000    0.0000000000000000
     0.0000000000000000    6.7020160000000004    0.0000000000000000
     0.0000000000000000    0.0000000000000000    6.7020160000000004
PRESSURE
0.073466 -0.873769 0.553414 0.196928 -0.061956 -0.156628
PRIMCOORD
4 1
H       0.74146      3.24101      6.41486        -0.273413     -0.995361      0.235925
H       0.42370      1.47131      6.59876         0.028426      0.868221     -0.010588
H       0.53732      2.51821      1.24505        -0.269083      0.141417      1.233457
N       0.64889      2.39062      0.27906         0.513664     -0.016264     -1.458869
