  # total energy =   -19.31117209 
CRSYTAL
PRIMVEC
     6.7020160000000004    0.0000000000000000    0.0000000000000000
     0.0000000000000000    6.7020160000000004    0.0000000000000000
     0.0000000000000000    0.0000000000000000    6.7020160000000004
PRESSURE
0.070195 0.18687 0.406229 -0.220067 0.100607 -0.053047
PRIMCOORD
4 1
H       1.69311      1.62004      0.19576         0.035129     -0.132297      0.011642
H       6.68004      1.61471      0.39728        -0.117265     -0.060734     -0.119916
H       0.97424      1.01870      1.64950         0.189667     -0.583555      0.834576
N       0.89160      1.47104      0.78040        -0.108234      0.777476     -0.726004
