  # total energy =   -19.33925635 
CRSYTAL
PRIMVEC
     6.7020160000000004    0.0000000000000000    0.0000000000000000
     0.0000000000000000    6.7020160000000004    0.0000000000000000
     0.0000000000000000    0.0000000000000000    6.7020160000000004
PRESSURE
-0.55689 -0.78503 -1.22483 0.236016 0.803451 -0.244605
PRIMCOORD
4 1
H       0.16579      3.75600      5.16035        -0.423192      0.579010      0.894227
H       0.15201      5.41563      5.42906        -0.596221     -1.023048      0.868196
H       6.00283      4.32299      6.59687         1.321626      0.559112     -1.776042
N       0.10147      4.48312      5.90365        -0.301946     -0.114117      0.014574
