  # total energy =   -19.38096633 
CRSYTAL
PRIMVEC
     6.7020160000000004    0.0000000000000000    0.0000000000000000
     0.0000000000000000    6.7020160000000004    0.0000000000000000
     0.0000000000000000    0.0000000000000000    6.7020160000000004
PRESSURE
0.393656 0.733235 0.71893 -0.547541 -0.413351 0.045401
PRIMCOORD
4 1
H       1.47683      0.69377      0.22500         0.796069      0.277701     -0.874698
H       0.16799      1.44734      0.65169        -0.246792      0.580291     -0.110271
H       0.73272      0.25188      1.41767        -0.584926     -1.522012      1.578515
N       1.04650      1.10797      1.03983         0.036340      0.663094     -0.592299
