  # total energy =   -19.46773203 
CRSYTAL
PRIMVEC
     6.7020160000000004    0.0000000000000000    0.0000000000000000
     0.0000000000000000    6.7020160000000004    0.0000000000000000
     0.0000000000000000    0.0000000000000000    6.7020160000000004
PRESSURE
0.259648 0.294133 0.382599 0.096026 -0.014763 0.092626
PRIMCOORD
4 1
H       6.58139      3.60744      5.27650        -0.400487     -0.247233     -0.658162
H       0.56464      5.02413      5.82605        -0.017383      0.456726     -0.197970
H       6.20298      4.18080      0.09190        -0.474817      0.125759      0.213988
N       0.18913      4.12644      6.06780         0.892232     -0.334188      0.642547
