  # total energy =   -19.33940732 
CRSYTAL
PRIMVEC
     6.7020160000000004    0.0000000000000000    0.0000000000000000
     0.0000000000000000    6.7020160000000004    0.0000000000000000
     0.0000000000000000    0.0000000000000000    6.7020160000000004
PRESSURE
-0.004283 -0.601943 0.667498 0.076488 -0.370723 0.379507
PRIMCOORD
4 1
H       6.69503      3.42985      5.93158        -0.002517     -0.419752      0.225556
H       0.99498      2.08799      6.48236        -0.879508      1.090770      0.063848
H       0.12900      3.04410      0.87859        -0.977065      0.054820      1.630455
N       0.50249      2.98208      6.68592         1.859775     -0.725523     -1.921167
