  # total energy =   -19.43944004 
CRSYTAL
PRIMVEC
     6.7020160000000004    0.0000000000000000    0.0000000000000000
     0.0000000000000000    6.7020160000000004    0.0000000000000000
     0.0000000000000000    0.0000000000000000    6.7020160000000004
PRESSURE
0.22494 0.190694 -0.11155 -0.353497 0.205929 -0.070785
PRIMCOORD
4 1
H       0.00712      3.32128      5.95792        -0.637693      0.471247     -0.213716
H       0.84167      2.02290      6.40769        -0.140625     -0.204834      0.623701
H       0.06420      2.99913      0.91189        -0.159037     -0.411261     -0.179869
N       0.53320      2.93882      0.01620         0.936709      0.143439     -0.230671
