  # total energy =   -19.28916121 
CRSYTAL
PRIMVEC
     6.7020160000000004    0.0000000000000000    0.0000000000000000
     0.0000000000000000    6.7020160000000004    0.0000000000000000
     0.0000000000000000    0.0000000000000000    6.7020160000000004
PRESSURE
-0.992543 0.001749 -0.86279 -0.168503 0.184524 -0.200781
PRIMCOORD
4 1
H       6.43835      3.55211      5.42143         0.523570      0.381194      0.465000
H       1.23556      4.08306      6.24841        -1.134055     -0.176473     -0.170661
H       6.42791      3.84314      0.45142         0.869360      0.005611     -1.383521
N       0.27632      3.70735      6.27437        -0.258297     -0.210818      1.090014
