  # total energy =   -19.43394539 
CRSYTAL
PRIMVEC
     6.7020160000000004    0.0000000000000000    0.0000000000000000
     0.0000000000000000    6.7020160000000004    0.0000000000000000
     0.0000000000000000    0.0000000000000000    6.7020160000000004
PRESSURE
0.21541 0.493934 -0.227038 0.238902 0.254167 0.164977
PRIMCOORD
4 1
H       0.93347      2.89676      6.57094         0.009114      0.763714      0.355119
H       6.68983      1.59479      0.02344        -0.543672     -0.428973     -0.418272
H       0.52710      2.19324      1.41927         0.262958      0.710724     -0.383654
N       0.76220      2.08221      0.43062         0.271189     -1.044397      0.447060
