  # total energy =   -19.24883014 
CRSYTAL
PRIMVEC
     6.7020160000000004    0.0000000000000000    0.0000000000000000
     0.0000000000000000    6.7020160000000004    0.0000000000000000
     0.0000000000000000    0.0000000000000000    6.7020160000000004
PRESSURE
-0.190431 -0.284752 -0.752687 0.339725 -0.057283 0.245032
PRIMCOORD
4 1
H       6.67675      3.51087      5.91701         0.274438     -0.687030      0.181346
H       1.08907      2.21332      6.55846        -0.418020      0.309598     -0.796834
H       0.13562      3.08776      0.92463         0.059637      0.166589     -1.362998
N       0.48103      3.02098      6.64814         0.083435      0.210531      1.978855
