  # total energy =   -19.43073718 
CRSYTAL
PRIMVEC
     6.7020160000000004    0.0000000000000000    0.0000000000000000
     0.0000000000000000    6.7020160000000004    0.0000000000000000
     0.0000000000000000    0.0000000000000000    6.7020160000000004
PRESSURE
-0.548532 -0.478577 -0.89399 0.122796 0.67675 -0.197363
PRIMCOORD
4 1
H       6.56978      3.64816      5.22553        -0.203099      0.135758      0.387567
H       0.50112      5.09397      5.74359        -0.587219     -0.891193      0.552575
H       6.12129      4.21052      0.09663         1.242048      0.079503     -1.596133
N       0.19246      4.14517      6.06176        -0.451699      0.675785      0.656592
