  # total energy =   -19.30654569 
CRSYTAL
PRIMVEC
     6.7020160000000004    0.0000000000000000    0.0000000000000000
     0.0000000000000000    6.7020160000000004    0.0000000000000000
     0.0000000000000000    0.0000000000000000    6.7020160000000004
PRESSURE
-0.191754 0.062022 0.332513 -0.059876 0.101908 -0.071143
PRIMCOORD
4 1
H       1.62184      2.00325      0.17597        -0.281884     -0.074467      0.281712
H       6.64234      1.57007      0.26545         0.155187      0.070881      0.129768
H       0.95303      1.36968      1.64735         0.114694     -0.123074      0.883105
N       0.85135      1.60275      0.69539         0.013042      0.127061     -1.295173
