  # total energy =   -19.37913777 
CRSYTAL
PRIMVEC
     6.7020160000000004    0.0000000000000000    0.0000000000000000
     0.0000000000000000    6.7020160000000004    0.0000000000000000
     0.0000000000000000    0.0000000000000000    6.7020160000000004
PRESSURE
0.356789 0.460998 0.819136 -0.44945 -0.040112 0.049173
PRIMCOORD
4 1
H       1.69584      1.22789      0.23505         0.113242      0.022026     -0.746362
H       0.03939      1.55626      0.48195        -0.688224     -0.151404     -0.490132
H       0.97917      0.68953      1.57370        -0.374804     -1.241830      1.237858
N       0.93227      1.36018      0.86534         0.950496      1.370423     -0.000316
