  # total energy =   -19.39096835 
CRSYTAL
PRIMVEC
     6.7020160000000004    0.0000000000000000    0.0000000000000000
     0.0000000000000000    6.7020160000000004    0.0000000000000000
     0.0000000000000000    0.0000000000000000    6.7020160000000004
PRESSURE
0.12099 0.094209 0.412327 -0.386273 -0.317634 -0.068858
PRIMCOORD
4 1
H       1.47160      0.68920      0.21247         0.621186      0.510807     -0.482361
H       0.14888      1.43138      0.63154         0.085539      0.487675      0.054378
H       0.72508      0.23134      1.41041        -0.130216     -0.285106      1.065597
N       1.04527      1.12372      1.03588        -0.575605     -0.712472     -0.636738
