  # total energy =   -19.26276858 
CRSYTAL
PRIMVEC
     6.7020160000000004    0.0000000000000000    0.0000000000000000
     0.0000000000000000    6.7020160000000004    0.0000000000000000
     0.0000000000000000    0.0000000000000000    6.7020160000000004
PRESSURE
0.601735 1.18661 0.109704 -0.056324 -0.142282 -0.630989
PRIMCOORD
4 1
H       0.34220      4.21883      5.10365         1.347611     -2.079495     -0.064949
H       6.25091      5.33766      4.91837        -0.915470      1.545685     -0.021303
H       5.94577      4.49013      6.22699        -0.334431     -0.291453      0.327910
N       0.00571      4.91990      5.71828        -0.097746      0.825964     -0.241751
