  # total energy =   -19.31487452 
CRSYTAL
PRIMVEC
     6.7020160000000004    0.0000000000000000    0.0000000000000000
     0.0000000000000000    6.7020160000000004    0.0000000000000000
     0.0000000000000000    0.0000000000000000    6.7020160000000004
PRESSURE
-0.079009 -0.060259 -0.063077 -0.055545 0.07231 -0.048471
PRIMCOORD
4 1
H       6.57527      3.45707      5.35399        -0.038507      0.092930     -0.430880
H       0.90355      4.71696      6.06252        -0.182003     -0.151513     -0.452376
H       6.34006      4.02501      0.27036         0.117332     -0.054680     -0.560071
N       0.20415      3.99289      6.12667         0.104292      0.112952      1.442463
