  # total energy =   -19.47979051 
CRSYTAL
PRIMVEC
     6.7020160000000004    0.0000000000000000    0.0000000000000000
     0.0000000000000000    6.7020160000000004    0.0000000000000000
     0.0000000000000000    0.0000000000000000    6.7020160000000004
PRESSURE
-0.254933 -0.667286 -0.385692 -0.19223 -0.046229 0.378533
PRIMCOORD
4 1
H       0.38258      4.03473      5.16996        -0.483929      1.184998      0.756917
H       6.23966      5.47035      5.03102         0.554100     -0.492698      0.524125
H       5.94020      4.47448      6.27029         0.063733     -0.063014      0.129025
N       0.02110      4.86226      5.73548        -0.133668     -0.629267     -1.410376
