  # total energy =   -19.31249249 
CRSYTAL
PRIMVEC
     6.7020160000000004    0.0000000000000000    0.0000000000000000
     0.0000000000000000    6.7020160000000004    0.0000000000000000
     0.0000000000000000    0.0000000000000000    6.7020160000000004
PRESSURE
0.101001 0.040025 0.24216 0.205861 0.032356 0.020725
PRIMCOORD
4 1
H       0.70107      3.24598      6.39804        -0.192422     -0.269228     -0.150230
H       0.45691      1.51075      6.60553        -0.237687     -0.333312     -0.534789
H       0.51091      2.53857      1.24789        -0.135684      0.113643      0.201940
N       0.64283      2.41689      0.26319         0.564942      0.489604      0.481557
