  # total energy =   -19.20716543 
CRSYTAL
PRIMVEC
     6.7020160000000004    0.0000000000000000    0.0000000000000000
     0.0000000000000000    6.7020160000000004    0.0000000000000000
     0.0000000000000000    0.0000000000000000    6.7020160000000004
PRESSURE
0.663071 1.41041 0.644239 -0.201921 -0.515018 -0.049833
PRIMCOORD
4 1
H       0.35887      3.90978      5.19738        -0.085363     -1.464744     -0.148822
H       0.05530      5.42585      5.34370        -0.577127      1.883195     -0.273473
H       6.11350      4.41252      6.53724        -1.880753     -0.550538      1.403491
N       0.05269      4.58924      5.84552         2.542170      0.132704     -0.980946
