  # total energy =   -19.42814462 
CRSYTAL
PRIMVEC
     6.7020160000000004    0.0000000000000000    0.0000000000000000
     0.0000000000000000    6.7020160000000004    0.0000000000000000
     0.0000000000000000    0.0000000000000000    6.7020160000000004
PRESSURE
0.019199 0.451976 -0.8141 -0.303432 0.370848 -0.100319
PRIMCOORD
4 1
H       6.69619      3.28708      5.96413        -0.386210      0.489637      0.194843
H       0.76728      1.99530      6.39562         0.068419     -0.737839      0.628419
H       0.02456      2.96803      0.93419         0.466120     -0.488759     -1.275418
N       0.54918      2.92025      0.02839        -0.147758      0.738616      0.452910
