  # total energy =   -19.35564932 
CRSYTAL
PRIMVEC
     6.7020160000000004    0.0000000000000000    0.0000000000000000
     0.0000000000000000    6.7020160000000004    0.0000000000000000
     0.0000000000000000    0.0000000000000000    6.7020160000000004
PRESSURE
0.231784 -0.198362 0.08954 -0.286867 -0.140787 -0.357837
PRIMCOORD
4 1
H       1.48187      0.84451      0.15211         0.674102      0.363880      0.023450
H       0.09599      1.35833      0.50618        -0.243188      0.831700      0.139164
H       0.75721      0.33719      1.41043         0.407241      0.346234      0.594584
N       1.00798      1.24927      0.97541        -0.837756     -1.542055     -0.757264
