  # total energy =   -19.18462282 
CRSYTAL
PRIMVEC
     6.7020160000000004    0.0000000000000000    0.0000000000000000
     0.0000000000000000    6.7020160000000004    0.0000000000000000
     0.0000000000000000    0.0000000000000000    6.7020160000000004
PRESSURE
1.21141 0.27129 1.49958 0.19849 -0.62315 0.323955
PRIMCOORD
4 1
H       6.51589      3.50885      5.40127        -0.433620     -0.173815     -0.573653
H       1.13057      4.20499      6.14411         1.333169      0.827843      0.164809
H       6.43556      3.84128      0.32479        -1.784076      0.389225      3.015873
N       0.25139      3.79798      6.24133         0.883943     -1.044212     -2.607144
