  # total energy =   -19.31960109 
CRSYTAL
PRIMVEC
     6.7020160000000004    0.0000000000000000    0.0000000000000000
     0.0000000000000000    6.7020160000000004    0.0000000000000000
     0.0000000000000000    0.0000000000000000    6.7020160000000004
PRESSURE
0.166502 0.981446 0.094135 0.213658 -0.020651 -0.252781
PRIMCOORD
4 1
H       0.38583      3.91649      5.22873         0.137526     -1.559336     -0.551838
H       0.00844      5.47218      5.33306        -0.498872      0.871533     -0.033310
H       6.08380      4.41945      6.55280        -0.266613     -0.137158     -0.248536
N       0.04863      4.61271      5.82822         0.628582      0.825124      0.834660
