  # total energy =   -19.27443947 
CRSYTAL
PRIMVEC
     6.7020160000000004    0.0000000000000000    0.0000000000000000
     0.0000000000000000    6.7020160000000004    0.0000000000000000
     0.0000000000000000    0.0000000000000000    6.7020160000000004
PRESSURE
-1.06558 -0.005903 -0.955144 -0.173607 0.251025 -0.211062
PRIMCOORD
4 1
H       6.44013      3.54805      5.41878         0.518860      0.381408      0.484367
H       1.23582      4.08903      6.24324        -1.203061     -0.204097     -0.137005
H       6.42198      3.84237      0.45394         0.995407     -0.006218     -1.554290
N       0.27533      3.71189      6.27230        -0.310566     -0.171298      1.207828
