  # total energy =   -19.17420386 
CRSYTAL
PRIMVEC
     6.7020160000000004    0.0000000000000000    0.0000000000000000
     0.0000000000000000    6.7020160000000004    0.0000000000000000
     0.0000000000000000    0.0000000000000000    6.7020160000000004
PRESSURE
0.946484 0.373741 1.56243 -0.698971 0.253621 -0.099692
PRIMCOORD
4 1
H       1.64732      1.70386      0.17487         0.896924     -0.012781     -0.210968
H       6.69654      1.60430      0.37632        -1.217397      0.111214     -0.532418
H       0.93886      1.10540      1.62274         0.621158     -1.482140      3.048410
N       0.88625      1.49603      0.76598        -0.301727      1.384577     -2.303907
