  # total energy =   -19.30719929 
CRSYTAL
PRIMVEC
     6.7020160000000004    0.0000000000000000    0.0000000000000000
     0.0000000000000000    6.7020160000000004    0.0000000000000000
     0.0000000000000000    0.0000000000000000    6.7020160000000004
PRESSURE
-0.728201 -0.661687 -0.44647 -0.637417 -0.173863 -0.009537
PRIMCOORD
4 1
H       0.91625      2.93290      0.10225         0.240701     -0.647440     -0.714608
H       6.54505      1.68717      0.06919         1.382284      0.333632      0.522875
H       0.52546      2.34883      1.43068         0.316468     -1.344771     -0.925157
N       0.80182      1.95998      0.46392        -1.939859      1.658646      1.116890
