  # total energy =   -19.12360562 
CRSYTAL
PRIMVEC
     6.7020160000000004    0.0000000000000000    0.0000000000000000
     0.0000000000000000    6.7020160000000004    0.0000000000000000
     0.0000000000000000    0.0000000000000000    6.7020160000000004
PRESSURE
-0.696806 -1.55975 -0.58269 -0.070083 -0.086527 -0.343312
PRIMCOORD
4 1
H       1.47084      0.70047      0.15893         0.008309      1.113176      0.876879
H       0.09066      1.38804      0.56265         1.085918      0.319371      0.628175
H       0.70246      0.17437      1.41297         0.861709      2.460014     -0.156314
N       1.03762      1.17931      1.01833        -1.955782     -3.893877     -1.348575
