  # total energy =   -19.33519698 
CRSYTAL
PRIMVEC
     6.7020160000000004    0.0000000000000000    0.0000000000000000
     0.0000000000000000    6.7020160000000004    0.0000000000000000
     0.0000000000000000    0.0000000000000000    6.7020160000000004
PRESSURE
0.717914 0.367281 1.02922 -0.069354 -0.664183 0.175649
PRIMCOORD
4 1
H       6.57845      3.54381      5.31134        -0.151729      0.079830     -0.640729
H       0.65087      4.95897      5.92154         0.372066      0.835934     -0.675818
H       6.27374      4.14804      0.11240        -1.760172      0.075443      1.821413
N       0.18844      4.10034      6.07698         1.539930     -0.990815     -0.503636
