  # total energy =   -19.33305019 
CRSYTAL
PRIMVEC
     6.7020160000000004    0.0000000000000000    0.0000000000000000
     0.0000000000000000    6.7020160000000004    0.0000000000000000
     0.0000000000000000    0.0000000000000000    6.7020160000000004
PRESSURE
0.075019 0.811859 -0.042097 0.263866 0.076779 -0.254543
PRIMCOORD
4 1
H       0.39019      3.91416      5.23245         0.106353     -1.429163     -0.510715
H       0.00019      5.48180      5.33115        -0.468551      0.607205      0.046017
H       6.07779      4.41998      6.55563        -0.019756     -0.067647     -0.506379
N       0.04818      4.61639      5.82564         0.382456      0.889976      0.972095
