  # total energy =   -19.25746040 
CRSYTAL
PRIMVEC
     6.7020160000000004    0.0000000000000000    0.0000000000000000
     0.0000000000000000    6.7020160000000004    0.0000000000000000
     0.0000000000000000    0.0000000000000000    6.7020160000000004
PRESSURE
-0.501443 -0.126292 -0.92011 -0.15412 0.381025 0.288633
PRIMCOORD
4 1
H       6.67747      3.56492      5.77035         0.169643     -0.122925      0.626210
H       1.29649      2.64537      6.38772        -0.679649      0.428567      0.645381
H       0.04258      3.34352      0.82263         0.766675     -0.324157     -1.142188
N       0.42420      3.14522      6.58410        -0.256813      0.018703     -0.130077
