  # total energy =   -19.49961648 
CRSYTAL
PRIMVEC
     6.7020160000000004    0.0000000000000000    0.0000000000000000
     0.0000000000000000    6.7020160000000004    0.0000000000000000
     0.0000000000000000    0.0000000000000000    6.7020160000000004
PRESSURE
0.067725 -0.395511 0.168638 -0.291594 -0.194027 0.026223
PRIMCOORD
4 1
H       0.15718      3.28257      6.21628         0.160229     -0.014740     -0.080741
H       0.48148      1.69753      6.46769         0.023387      0.732983      0.585265
H       0.11497      2.75159      1.01811        -0.293439     -0.311929      0.594115
N       0.63582      2.64986      0.16232         0.109556     -0.405772     -1.099154
