  # total energy =   -19.25031539 
CRSYTAL
PRIMVEC
     6.7020160000000004    0.0000000000000000    0.0000000000000000
     0.0000000000000000    6.7020160000000004    0.0000000000000000
     0.0000000000000000    0.0000000000000000    6.7020160000000004
PRESSURE
-0.251876 -1.00489 -0.373949 -0.109997 -0.082082 -0.424145
PRIMCOORD
4 1
H       1.47638      0.79380      0.14440         0.309468      0.723827      0.582003
H       0.08584      1.35893      0.51477         0.434057      0.685024      0.449959
H       0.73170      0.26616      1.41236         0.738086      1.717015      0.006924
N       1.01767      1.23323      0.98831        -1.482087     -3.125576     -1.039258
