  # total energy =   -19.28203649 
CRSYTAL
PRIMVEC
     6.7020160000000004    0.0000000000000000    0.0000000000000000
     0.0000000000000000    6.7020160000000004    0.0000000000000000
     0.0000000000000000    0.0000000000000000    6.7020160000000004
PRESSURE
0.704948 0.201438 0.807608 0.137649 -0.242996 0.209594
PRIMCOORD
4 1
H       6.49627      3.51635      5.40925        -0.274893     -0.049198     -0.439003
H       1.15635      4.16583      6.16791         0.899447      0.601137      0.126857
H       6.42809      3.83560      0.35856        -0.753589      0.327509      1.448761
N       0.25820      3.77612      6.24965         0.128248     -0.880080     -1.136664
