  # total energy =   -19.38790267 
CRSYTAL
PRIMVEC
     6.7020160000000004    0.0000000000000000    0.0000000000000000
     0.0000000000000000    6.7020160000000004    0.0000000000000000
     0.0000000000000000    0.0000000000000000    6.7020160000000004
PRESSURE
0.31209 0.537149 0.628084 -0.495896 -0.38413 0.008873
PRIMCOORD
4 1
H       1.47469      0.69206      0.22136         0.748206      0.350851     -0.762357
H       0.16184      1.44182      0.64517        -0.146817      0.553360     -0.061645
H       0.73047      0.24580      1.41450        -0.440333     -1.132136      1.418877
N       1.04611      1.11309      1.03857        -0.160335      0.227620     -0.593751
