  # total energy =   -19.23783178 
CRSYTAL
PRIMVEC
     6.7020160000000004    0.0000000000000000    0.0000000000000000
     0.0000000000000000    6.7020160000000004    0.0000000000000000
     0.0000000000000000    0.0000000000000000    6.7020160000000004
PRESSURE
-1.08888 -0.108637 -0.822525 -0.116719 -0.507968 -0.450068
PRIMCOORD
4 1
H       1.54960      2.32106      0.22505        -1.202220     -0.362503     -0.263592
H       6.58633      1.57296      0.19390         1.102606      0.608025      0.607026
H       0.96531      1.68322      1.65123        -0.928587     -0.098313     -1.335481
N       0.81840      1.70813      0.61678         1.027781     -0.146639      0.991248
