  # total energy =   -19.35689362 
CRSYTAL
PRIMVEC
     6.7020160000000004    0.0000000000000000    0.0000000000000000
     0.0000000000000000    6.7020160000000004    0.0000000000000000
     0.0000000000000000    0.0000000000000000    6.7020160000000004
PRESSURE
-0.055721 -0.368732 -0.076824 -0.281393 -0.094198 -0.192865
PRIMCOORD
4 1
H       6.57024      3.50228      5.31273         0.158699      0.687026      0.022809
H       0.71769      4.94215      5.96456        -0.320379     -0.364063     -0.592542
H       6.26937      4.12925      0.17663        -0.108467     -0.058698     -0.244417
N       0.19133      4.08114      6.08232         0.270237     -0.264729      0.815029
