  # total energy =   -19.37359412 
CRSYTAL
PRIMVEC
     6.7020160000000004    0.0000000000000000    0.0000000000000000
     0.0000000000000000    6.7020160000000004    0.0000000000000000
     0.0000000000000000    0.0000000000000000    6.7020160000000004
PRESSURE
0.462302 0.90122 0.794139 -0.592679 -0.437463 0.077964
PRIMCOORD
4 1
H       1.47939      0.69561      0.22804         0.829993      0.211419     -0.962762
H       0.17384      1.45307      0.65800        -0.332158      0.600669     -0.151075
H       0.73457      0.25692      1.42172        -0.712571     -1.862571      1.714088
N       1.04688      1.10300      1.04103         0.215388      1.049294     -0.598929
