  # total energy =   -19.21774323 
CRSYTAL
PRIMVEC
     6.7020160000000004    0.0000000000000000    0.0000000000000000
     0.0000000000000000    6.7020160000000004    0.0000000000000000
     0.0000000000000000    0.0000000000000000    6.7020160000000004
PRESSURE
0.641612 0.770996 1.23809 -0.195092 -0.546921 -0.121759
PRIMCOORD
4 1
H       0.38995      3.93168      5.35752         0.678353     -0.786317     -1.739148
H       6.39648      5.55054      5.30725        -0.055570      0.846138     -1.729275
H       6.02172      4.45821      6.35915        -1.277792     -0.486161      1.378292
N       0.03501      4.75009      5.75692         0.655544      0.426062      2.089641
