  # total energy =   -19.29060273 
CRSYTAL
PRIMVEC
     6.7020160000000004    0.0000000000000000    0.0000000000000000
     0.0000000000000000    6.7020160000000004    0.0000000000000000
     0.0000000000000000    0.0000000000000000    6.7020160000000004
PRESSURE
0.571223 0.245915 0.715279 0.049733 -0.390245 0.238654
PRIMCOORD
4 1
H       6.58153      3.46326      5.35333        -0.218460     -0.101471     -0.257734
H       0.98496      4.55149      6.06983         0.559259      0.569007     -0.103489
H       6.38976      3.95817      0.27511        -1.045514      0.072944      1.393598
N       0.21261      3.94236      6.16121         0.704903     -0.539422     -1.031868
