  # total energy =   -19.47564227 
CRSYTAL
PRIMVEC
     6.7020160000000004    0.0000000000000000    0.0000000000000000
     0.0000000000000000    6.7020160000000004    0.0000000000000000
     0.0000000000000000    0.0000000000000000    6.7020160000000004
PRESSURE
0.287347 0.228377 0.436706 0.408437 0.149481 0.128891
PRIMCOORD
4 1
H       0.93140      2.91030      6.60868        -0.048240      0.124449      0.464370
H       6.66242      1.62236      0.04340        -0.636461     -0.464482     -0.528862
H       0.52622      2.21090      1.39356         0.001830      0.679609      0.917796
N       0.77044      2.05584      0.44009         0.683936     -0.338990     -0.853970
