  # total energy =   -19.30868274 
CRSYTAL
PRIMVEC
     6.7020160000000004    0.0000000000000000    0.0000000000000000
     0.0000000000000000    6.7020160000000004    0.0000000000000000
     0.0000000000000000    0.0000000000000000    6.7020160000000004
PRESSURE
-0.441464 -0.829067 -0.069934 -0.062934 0.269949 -0.180255
PRIMCOORD
4 1
H       6.65184      3.94927      5.70545        -0.271144     -0.826692     -0.153375
H       1.32953      3.71049      6.34419        -0.857116     -1.000496      0.366880
H       0.01899      3.94120      0.53838         0.278623     -1.038214     -0.264162
N       0.33821      3.31659      6.44368         0.850072      2.865043      0.050546
