  # total energy =   -19.27974558 
CRSYTAL
PRIMVEC
     6.7020160000000004    0.0000000000000000    0.0000000000000000
     0.0000000000000000    6.7020160000000004    0.0000000000000000
     0.0000000000000000    0.0000000000000000    6.7020160000000004
PRESSURE
-0.575553 -0.177592 -0.375721 0.316182 -0.195665 0.262046
PRIMCOORD
4 1
H       1.75141      1.41273      0.25434        -0.696995      0.106129     -0.316916
H       6.68559      1.61524      0.45185         0.410324     -0.345458     -0.046657
H       1.03891      0.83183      1.66678        -0.714780      0.627653     -1.066227
N       0.90577      1.41388      0.81634         1.000414     -0.387407      1.428547
