  # total energy =   -19.25791985 
CRSYTAL
PRIMVEC
     6.7020160000000004    0.0000000000000000    0.0000000000000000
     0.0000000000000000    6.7020160000000004    0.0000000000000000
     0.0000000000000000    0.0000000000000000    6.7020160000000004
PRESSURE
0.251362 0.70537 0.975866 0.160594 -0.284233 -0.297968
PRIMCOORD
4 1
H       0.38166      3.95708      5.35381         0.859291     -1.282777     -1.993556
H       6.35264      5.54936      5.27147         0.085070      0.360806     -1.475312
H       5.98828      4.45251      6.34739        -0.239602     -0.044366      0.533218
N       0.03509      4.77082      5.74889        -0.703507      0.966342      2.935662
