  # total energy =   -19.50043217 
CRSYTAL
PRIMVEC
     6.7020160000000004    0.0000000000000000    0.0000000000000000
     0.0000000000000000    6.7020160000000004    0.0000000000000000
     0.0000000000000000    0.0000000000000000    6.7020160000000004
PRESSURE
0.078436 -0.259788 0.079852 -0.333304 -0.113008 0.026838
PRIMCOORD
4 1
H       0.17252      3.27946      6.21816         0.060930      0.117998     -0.143836
H       0.48726      1.69955      6.46227        -0.038519      0.546253      0.610331
H       0.12663      2.75614      1.03148        -0.217472     -0.379541      0.364875
N       0.63518      2.64341      0.16491         0.194788     -0.283671     -0.831693
