  # total energy =   -19.45291116 
CRSYTAL
PRIMVEC
     6.7020160000000004    0.0000000000000000    0.0000000000000000
     0.0000000000000000    6.7020160000000004    0.0000000000000000
     0.0000000000000000    0.0000000000000000    6.7020160000000004
PRESSURE
0.228051 0.169151 0.04207 -0.154226 -0.143812 0.096671
PRIMCOORD
4 1
H       6.44399      3.71531      5.50387         0.186492      0.374080     -0.267052
H       1.22731      3.95530      6.33125         0.523994      0.435234     -0.535380
H       6.52811      3.91545      0.45724        -0.140991      0.021677     -0.155685
N       0.30375      3.57416      6.32872        -0.567507     -0.830034      0.958003
