  # total energy =   -19.31076685 
CRSYTAL
PRIMVEC
     6.7020160000000004    0.0000000000000000    0.0000000000000000
     0.0000000000000000    6.7020160000000004    0.0000000000000000
     0.0000000000000000    0.0000000000000000    6.7020160000000004
PRESSURE
0.615061 0.210739 0.922517 0.122908 -0.718035 -0.015559
PRIMCOORD
4 1
H       6.43328      3.60922      5.46164         0.264056      0.319372     -0.164638
H       1.20942      4.01469      6.29854         0.702186      0.483938     -0.510686
H       6.50533      3.85508      0.40375        -1.393999      0.617162      1.998608
N       0.28728      3.65528      6.29892         0.427812     -1.419388     -1.324548
