  # total energy =   -19.40921530 
CRSYTAL
PRIMVEC
     6.7020160000000004    0.0000000000000000    0.0000000000000000
     0.0000000000000000    6.7020160000000004    0.0000000000000000
     0.0000000000000000    0.0000000000000000    6.7020160000000004
PRESSURE
0.65708 0.121278 0.804315 0.577234 -0.296135 -0.06625
PRIMCOORD
4 1
H       6.54935      3.90706      5.57399        -0.212147     -0.535732     -0.084799
H       1.21618      3.91888      6.27309         0.857139      0.010719      0.316348
H       6.58753      3.94880      0.41105        -0.865476      0.890818      2.028135
N       0.31848      3.46699      6.38087         0.221174     -0.366290     -2.259628
