  # total energy =   -19.33840155 
CRSYTAL
PRIMVEC
     6.7020160000000004    0.0000000000000000    0.0000000000000000
     0.0000000000000000    6.7020160000000004    0.0000000000000000
     0.0000000000000000    0.0000000000000000    6.7020160000000004
PRESSURE
0.108131 -0.418558 -0.036963 -0.230369 -0.123139 -0.380124
PRIMCOORD
4 1
H       1.48007      0.83173      0.15000         0.579853      0.454619      0.168832
H       0.09348      1.35778      0.50802        -0.070122      0.801874      0.221191
H       0.75051      0.31906      1.41062         0.501770      0.743417      0.416403
N       1.01041      1.24552      0.97860        -1.011300     -1.999327     -0.806719
