  # total energy =   -19.38634122 
CRSYTAL
PRIMVEC
     6.7020160000000004    0.0000000000000000    0.0000000000000000
     0.0000000000000000    6.7020160000000004    0.0000000000000000
     0.0000000000000000    0.0000000000000000    6.7020160000000004
PRESSURE
-0.51938 -0.631643 -0.960269 0.258742 0.704496 -0.245758
PRIMCOORD
4 1
H       0.14518      3.75146      5.17265        -0.318042      0.390372      0.557553
H       0.15103      5.40814      5.44557        -0.535120     -0.867122      0.689517
H       6.00107      4.32041      6.58734         1.245632      0.546436     -1.591724
N       0.10549      4.47559      5.90682        -0.391899     -0.068942      0.345011
