  # total energy =   -19.18965535 
CRSYTAL
PRIMVEC
     6.7020160000000004    0.0000000000000000    0.0000000000000000
     0.0000000000000000    6.7020160000000004    0.0000000000000000
     0.0000000000000000    0.0000000000000000    6.7020160000000004
PRESSURE
0.497877 -0.808634 0.066219 0.069769 0.472544 0.151577
PRIMCOORD
4 1
H       6.64658      3.99776      5.65651        -0.825954     -1.030646     -0.374768
H       1.22550      3.86455      6.25440         0.941309     -0.572597      0.811643
H       6.62271      4.00533      0.46479         0.548787     -0.979308     -0.043992
N       0.32938      3.38374      6.41311        -0.663205      2.583352     -0.392619
