  # total energy =   -19.33130463 
CRSYTAL
PRIMVEC
     6.7020160000000004    0.0000000000000000    0.0000000000000000
     0.0000000000000000    6.7020160000000004    0.0000000000000000
     0.0000000000000000    0.0000000000000000    6.7020160000000004
PRESSURE
0.847227 0.57217 1.20801 0.011318 -0.701633 0.253444
PRIMCOORD
4 1
H       6.58141      3.56418      5.30652        -0.289477     -0.164415     -0.869406
H       0.62249      4.97171      5.89669         0.470241      1.122929     -0.646579
H       6.26396      4.15703      0.09488        -2.005480      0.123219      2.065863
N       0.18787      4.10859      6.07438         1.824673     -1.081099     -0.548377
