  # total energy =   -19.24932293 
CRSYTAL
PRIMVEC
     6.7020160000000004    0.0000000000000000    0.0000000000000000
     0.0000000000000000    6.7020160000000004    0.0000000000000000
     0.0000000000000000    0.0000000000000000    6.7020160000000004
PRESSURE
-0.457278 -0.101161 -1.00803 -0.182773 0.435996 0.255551
PRIMCOORD
4 1
H       6.67871      3.56500      5.76640         0.124751     -0.086056      0.615472
H       1.29752      2.66001      6.38181        -0.562432      0.357486      0.675713
H       0.03825      3.35157      0.82383         0.857016     -0.361667     -1.312039
N       0.42303      3.14841      6.58217        -0.419296      0.090403      0.020040
