  # total energy =   -19.46487877 
CRSYTAL
PRIMVEC
     6.7020160000000004    0.0000000000000000    0.0000000000000000
     0.0000000000000000    6.7020160000000004    0.0000000000000000
     0.0000000000000000    0.0000000000000000    6.7020160000000004
PRESSURE
0.241667 0.095071 -0.105203 -0.13029 -0.364133 -0.037363
PRIMCOORD
4 1
H       6.60255      3.76687      5.70968         0.277374      0.270578     -0.071769
H       1.36053      3.38729      6.47765         0.463394      0.043082     -0.775966
H       0.12734      3.74236      0.65644        -0.535477     -0.043902     -0.268032
N       0.35635      3.27740      6.47290        -0.206333     -0.269175      1.116017
