  # total energy =   -19.24629057 
CRSYTAL
PRIMVEC
     6.7020160000000004    0.0000000000000000    0.0000000000000000
     0.0000000000000000    6.7020160000000004    0.0000000000000000
     0.0000000000000000    0.0000000000000000    6.7020160000000004
PRESSURE
-0.483437 -1.01631 -0.239421 -0.120101 0.395185 -0.139521
PRIMCOORD
4 1
H       6.65568      3.96505      5.70061        -0.328736     -0.957087     -0.098157
H       1.32265      3.73874      6.32705        -0.883794     -1.088822      0.515235
H       0.00067      3.96290      0.53708         0.500281     -1.320434     -0.587001
N       0.33696      3.32202      6.43997         0.712419      3.365818      0.169881
