  # total energy =   -19.21647465 
CRSYTAL
PRIMVEC
     6.7020160000000004    0.0000000000000000    0.0000000000000000
     0.0000000000000000    6.7020160000000004    0.0000000000000000
     0.0000000000000000    0.0000000000000000    6.7020160000000004
PRESSURE
-1.07473 -0.294008 -1.05037 0.602662 -0.182218 0.252087
PRIMCOORD
4 1
H       1.75200      1.49390      0.22843        -1.069120     -0.064119      0.190164
H       6.66088      1.62429      0.42566         1.075610     -0.418738      0.268794
H       1.02733      0.88228      1.70094        -0.610573      1.047204     -1.963149
N       0.89935      1.43659      0.80024         0.604702     -0.564080      1.504637
