  # total energy =   -19.33964506 
CRSYTAL
PRIMVEC
     6.7020160000000004    0.0000000000000000    0.0000000000000000
     0.0000000000000000    6.7020160000000004    0.0000000000000000
     0.0000000000000000    0.0000000000000000    6.7020160000000004
PRESSURE
0.167215 0.198131 0.369503 0.080741 0.002395 0.113388
PRIMCOORD
4 1
H       0.90555      3.04815      6.50556        -0.148887      0.085177     -0.042186
H       0.24258      1.47561      6.61266        -0.480810     -0.395998     -0.133645
H       0.61978      2.36634      1.33845        -0.299637      0.021226      0.648683
N       0.69254      2.23856      0.35845         0.929226      0.289171     -0.473671
