  # total energy =   -19.26842566 
CRSYTAL
PRIMVEC
     6.7020160000000004    0.0000000000000000    0.0000000000000000
     0.0000000000000000    6.7020160000000004    0.0000000000000000
     0.0000000000000000    0.0000000000000000    6.7020160000000004
PRESSURE
0.063655 -1.03853 0.588769 0.177575 -0.077956 -0.198581
PRIMCOORD
4 1
H       0.75059      3.23828      6.41913        -0.293540     -1.105965      0.290315
H       0.41570      1.46295      6.59683         0.090945      1.095772      0.103242
H       0.54315      2.51364      1.24622        -0.287358      0.136396      1.383406
N       0.65041      2.38439      0.28270         0.490062     -0.127801     -1.776775
