  # total energy =   -19.42686007 
CRSYTAL
PRIMVEC
     6.7020160000000004    0.0000000000000000    0.0000000000000000
     0.0000000000000000    6.7020160000000004    0.0000000000000000
     0.0000000000000000    0.0000000000000000    6.7020160000000004
PRESSURE
0.167526 0.497866 -0.341876 0.204407 0.245615 0.140192
PRIMCOORD
4 1
H       0.93377      2.89621      6.56623         0.010535      0.822783      0.340868
H       6.69229      1.58937      0.01916        -0.434175     -0.353196     -0.344462
H       0.52771      2.19236      1.42320         0.289862      0.708024     -0.576575
N       0.76105      2.08604      0.42921         0.133175     -1.176778      0.580567
