  # total energy =   -19.31739079 
CRSYTAL
PRIMVEC
     6.7020160000000004    0.0000000000000000    0.0000000000000000
     0.0000000000000000    6.7020160000000004    0.0000000000000000
     0.0000000000000000    0.0000000000000000    6.7020160000000004
PRESSURE
-0.448485 -0.00264 -0.323388 0.149624 -0.009692 0.039198
PRIMCOORD
4 1
H       1.71678      1.57861      0.20560        -0.452116     -0.151202      0.148656
H       6.66950      1.61954      0.40586         0.473917     -0.199534      0.093748
H       0.99352      0.97057      1.67266        -0.113148      0.138761     -0.546546
N       0.89411      1.45947      0.78678         0.091262      0.212510      0.304708
