  # total energy =   -19.33621721 
CRSYTAL
PRIMVEC
     6.7020160000000004    0.0000000000000000    0.0000000000000000
     0.0000000000000000    6.7020160000000004    0.0000000000000000
     0.0000000000000000    0.0000000000000000    6.7020160000000004
PRESSURE
0.18791 0.300253 0.318715 0.062533 0.019906 0.161563
PRIMCOORD
4 1
H       0.90313      3.05076      6.50746        -0.119890      0.180219     -0.141256
H       0.25038      1.47697      6.61324        -0.566064     -0.555547     -0.224238
H       0.62043      2.37260      1.33990        -0.285241     -0.031858      0.453010
N       0.69105      2.24169      0.35612         0.971125      0.406707     -0.088475
