  # total energy =   -19.49135072 
CRSYTAL
PRIMVEC
     6.7020160000000004    0.0000000000000000    0.0000000000000000
     0.0000000000000000    6.7020160000000004    0.0000000000000000
     0.0000000000000000    0.0000000000000000    6.7020160000000004
PRESSURE
-0.136374 0.069526 0.035607 0.226528 0.210187 -0.153235
PRIMCOORD
4 1
H       0.08723      3.74261      5.20936        -0.056014     -0.270199     -0.514882
H       0.14188      5.37898      5.49657        -0.300575      0.000779     -0.008223
H       6.01121      4.32055      6.54350         0.374187      0.371338     -0.487690
N       0.11577      4.45559      5.91572        -0.017066     -0.101599      1.010332
