  # total energy =   -19.38990011 
CRSYTAL
PRIMVEC
     6.7020160000000004    0.0000000000000000    0.0000000000000000
     0.0000000000000000    6.7020160000000004    0.0000000000000000
     0.0000000000000000    0.0000000000000000    6.7020160000000004
PRESSURE
-0.574117 -0.610419 -1.21726 0.229788 0.420127 -0.098161
PRIMCOORD
4 1
H       6.54080      3.72443      5.17082         0.131309      0.037633      1.162086
H       0.36219      5.15448      5.64365        -0.235831     -1.166469      1.090941
H       6.05913      4.26443      0.01163         1.223580     -0.020971     -1.226192
N       0.19571      4.17970      6.05336        -1.118132      1.148921     -1.026547
