  # total energy =   -19.29097483 
CRSYTAL
PRIMVEC
     6.7020160000000004    0.0000000000000000    0.0000000000000000
     0.0000000000000000    6.7020160000000004    0.0000000000000000
     0.0000000000000000    0.0000000000000000    6.7020160000000004
PRESSURE
-0.006167 0.454265 0.775483 0.305402 -0.142945 -0.282884
PRIMCOORD
4 1
H       0.38068      3.96491      5.34508         0.758507     -1.156405     -1.897160
H       6.33186      5.55042      5.24895         0.233476     -0.025531     -1.211333
H       5.97081      4.44935      6.34416         0.268674      0.172983      0.122345
N       0.03500      4.78096      5.74576        -1.260136      1.008524      2.986984
