  # total energy =   -19.28638380 
CRSYTAL
PRIMVEC
     6.7020160000000004    0.0000000000000000    0.0000000000000000
     0.0000000000000000    6.7020160000000004    0.0000000000000000
     0.0000000000000000    0.0000000000000000    6.7020160000000004
PRESSURE
-0.525234 -0.881776 -1.48827 0.177479 0.865437 -0.209504
PRIMCOORD
4 1
H       0.19763      3.76633      5.14454        -0.580615      0.759212      1.303475
H       0.15075      5.42306      5.40608        -0.662218     -1.084910      1.055512
H       6.01197      4.32989      6.60408         1.227385      0.526261     -1.844161
N       0.09477      4.49549      5.89842         0.015417     -0.199402     -0.513848
