  # total energy =   -19.14348882 
CRSYTAL
PRIMVEC
     6.7020160000000004    0.0000000000000000    0.0000000000000000
     0.0000000000000000    6.7020160000000004    0.0000000000000000
     0.0000000000000000    0.0000000000000000    6.7020160000000004
PRESSURE
0.124607 -0.458509 0.258885 -0.722714 0.039752 0.48124
PRIMCOORD
4 1
H       0.92629      2.88606      0.19585         0.775899     -0.150703     -1.402755
H       6.56752      1.75959      0.12485        -0.219815     -0.492691     -0.238219
H       0.54802      2.35012      1.41769         0.235587     -1.696907     -0.012255
N       0.81441      1.89773      0.48617        -0.792491      2.341309      1.654324
