  # total energy =   -19.40449600 
CRSYTAL
PRIMVEC
     6.7020160000000004    0.0000000000000000    0.0000000000000000
     0.0000000000000000    6.7020160000000004    0.0000000000000000
     0.0000000000000000    0.0000000000000000    6.7020160000000004
PRESSURE
0.625599 0.53566 0.89979 0.07477 -0.395248 0.21006
PRIMCOORD
4 1
H       6.58280      3.58960      5.29282        -0.397338     -0.303885     -0.893705
H       0.58883      4.99778      5.85860         0.279564      0.944680     -0.457338
H       6.23477      4.16993      0.08838        -1.370465      0.138393      1.255007
N       0.18819      4.11886      6.07066         1.488209     -0.779282      0.096560
