  # total energy =   -19.35928319 
CRSYTAL
PRIMVEC
     6.7020160000000004    0.0000000000000000    0.0000000000000000
     0.0000000000000000    6.7020160000000004    0.0000000000000000
     0.0000000000000000    0.0000000000000000    6.7020160000000004
PRESSURE
0.788097 0.599822 1.12542 0.049082 -0.592506 0.25178
PRIMCOORD
4 1
H       6.58253      3.57716      5.30081        -0.356924     -0.265055     -0.928717
H       0.60523      4.98336      5.87841         0.415882      1.114408     -0.575833
H       6.25159      4.16329      0.08949        -1.809195      0.137312      1.795838
N       0.18787      4.11379      6.07255         1.750263     -0.986242     -0.290317
