  # total energy =   -19.26231074 
CRSYTAL
PRIMVEC
     6.7020160000000004    0.0000000000000000    0.0000000000000000
     0.0000000000000000    6.7020160000000004    0.0000000000000000
     0.0000000000000000    0.0000000000000000    6.7020160000000004
PRESSURE
-0.578266 -0.796792 -0.832538 -0.398363 0.299187 -0.458224
PRIMCOORD
4 1
H       6.56545      3.47820      5.31295         0.312666      0.979891      0.373198
H       0.76614      4.92661      5.98979        -0.846725     -1.094898     -0.534304
H       6.26163      4.11427      0.22659         0.863019     -0.118689     -1.576242
N       0.19397      4.06605      6.08700        -0.328361      0.233051      1.737934
