  # total energy =   -19.45900586 
CRSYTAL
PRIMVEC
     6.7020160000000004    0.0000000000000000    0.0000000000000000
     0.0000000000000000    6.7020160000000004    0.0000000000000000
     0.0000000000000000    0.0000000000000000    6.7020160000000004
PRESSURE
-0.881231 -0.137049 -0.806188 -0.275897 0.142132 0.008939
PRIMCOORD
4 1
H       6.46657      3.79824      5.51445         0.494169      0.052176      0.449355
H       1.26622      3.94938      6.31365        -1.048056     -0.244535     -0.156418
H       6.52318      3.95260      0.49085         0.760678     -0.571201     -1.350088
N       0.31095      3.52504      6.34855        -0.206280      0.763154      1.057971
