  # total energy =   -19.29690865 
CRSYTAL
PRIMVEC
     6.7020160000000004    0.0000000000000000    0.0000000000000000
     0.0000000000000000    6.7020160000000004    0.0000000000000000
     0.0000000000000000    0.0000000000000000    6.7020160000000004
PRESSURE
0.023665 0.237736 1.05557 0.256519 -0.116944 -0.119205
PRIMCOORD
4 1
H       6.66231      3.60510      5.72413        -0.295299      0.378888     -0.079466
H       1.36091      2.96951      6.37912        -0.270601      0.251164      0.490924
H       0.07717      3.48724      0.70159        -0.581900      0.962132      2.338011
N       0.38888      3.21585      6.53995         1.147329     -1.592836     -2.749287
