  # total energy =   -19.35307601 
CRSYTAL
PRIMVEC
     6.7020160000000004    0.0000000000000000    0.0000000000000000
     0.0000000000000000    6.7020160000000004    0.0000000000000000
     0.0000000000000000    0.0000000000000000    6.7020160000000004
PRESSURE
-0.245258 0.087645 -0.00235 -0.058841 -0.293691 -0.10271
PRIMCOORD
4 1
H       6.43313      3.57938      5.44085         0.435857      0.347462      0.191847
H       1.22441      4.04733      6.27623        -0.334747      0.117538     -0.361024
H       6.46854      3.84801      0.42636        -0.219220      0.219632      0.202246
N       0.28191      3.68087      6.28697         0.118369     -0.685056     -0.033496
