  # total energy =   -19.28490178 
CRSYTAL
PRIMVEC
     6.7020160000000004    0.0000000000000000    0.0000000000000000
     0.0000000000000000    6.7020160000000004    0.0000000000000000
     0.0000000000000000    0.0000000000000000    6.7020160000000004
PRESSURE
0.122397 0.241695 1.09753 0.237788 -0.104259 -0.150441
PRIMCOORD
4 1
H       6.66646      3.60000      5.72691        -0.356801      0.405235     -0.132228
H       1.35425      2.95373      6.37441        -0.111221      0.201740      0.528154
H       0.07389      3.47807      0.70327        -0.584580      0.940443      2.394640
N       0.39075      3.21266      6.54280         1.052105     -1.547685     -2.790516
