  # total energy =   -19.23030934 
CRSYTAL
PRIMVEC
     6.7020160000000004    0.0000000000000000    0.0000000000000000
     0.0000000000000000    6.7020160000000004    0.0000000000000000
     0.0000000000000000    0.0000000000000000    6.7020160000000004
PRESSURE
-0.11409 0.032846 -1.05427 -0.268185 0.572727 0.049982
PRIMCOORD
4 1
H       6.68488      3.56511      5.75326        -0.149690      0.137102      0.402842
H       1.29895      2.72919      6.36081         0.127403      0.002499      0.728651
H       0.02650      3.38502      0.81684         1.036815     -0.412252     -1.562553
N       0.41728      3.16310      6.57343        -1.014193      0.273299      0.429896
