  # total energy =   -19.32851708 
CRSYTAL
PRIMVEC
     6.7020160000000004    0.0000000000000000    0.0000000000000000
     0.0000000000000000    6.7020160000000004    0.0000000000000000
     0.0000000000000000    0.0000000000000000    6.7020160000000004
PRESSURE
0.78877 0.454818 1.12811 -0.039423 -0.703192 0.211929
PRIMCOORD
4 1
H       6.57958      3.55070      5.31017        -0.201300     -0.011591     -0.731973
H       0.64103      4.96266      5.91357         0.428758      0.968086     -0.674739
H       6.27161      4.15101      0.10527        -1.911326      0.094565      1.989836
N       0.18817      4.10317      6.07613         1.683878     -1.050567     -0.581603
