  # total energy =   -19.32791724 
CRSYTAL
PRIMVEC
     6.7020160000000004    0.0000000000000000    0.0000000000000000
     0.0000000000000000    6.7020160000000004    0.0000000000000000
     0.0000000000000000    0.0000000000000000    6.7020160000000004
PRESSURE
-0.697451 0.016791 0.065497 0.467744 0.128398 -0.024138
PRIMCOORD
4 1
H       0.01540      3.29119      6.19769         0.794747     -0.479274      0.029729
H       0.42843      1.75788      6.56873         0.467093     -0.346647     -0.886627
H       6.65658      2.68151      0.93285         1.059638      0.604756     -0.107185
N       0.64065      2.72485      0.12278        -2.321558      0.221439      0.964822
