  # total energy =   -19.10405900 
CRSYTAL
PRIMVEC
     6.7020160000000004    0.0000000000000000    0.0000000000000000
     0.0000000000000000    6.7020160000000004    0.0000000000000000
     0.0000000000000000    0.0000000000000000    6.7020160000000004
PRESSURE
-0.814085 0.226436 0.357471 0.4588 0.380626 -0.469302
PRIMCOORD
4 1
H       6.65549      3.26175      6.17916         0.384061      0.194104     -0.691282
H       0.42290      1.80438      6.59854         0.894484     -0.490299     -1.204893
H       6.58772      2.66542      0.86954         1.441846      1.139700      0.008243
N       0.63205      2.79164      0.09103        -2.721753     -0.842953      1.888129
