  # total energy =   -19.23313177 
CRSYTAL
PRIMVEC
     6.7020160000000004    0.0000000000000000    0.0000000000000000
     0.0000000000000000    6.7020160000000004    0.0000000000000000
     0.0000000000000000    0.0000000000000000    6.7020160000000004
PRESSURE
-0.841747 0.227685 0.074186 0.554422 0.269517 -0.120176
PRIMCOORD
4 1
H       6.69515      3.28499      6.19482         0.754232     -0.339879     -0.125925
H       0.42176      1.77656      6.58652         0.555647     -0.704356     -1.129900
H       6.62616      2.66950      0.91766         1.367582      0.833087     -0.251081
N       0.63994      2.74287      0.11322        -2.677666      0.211125      1.507195
