  # total energy =   -19.29290843 
CRSYTAL
PRIMVEC
     6.7020160000000004    0.0000000000000000    0.0000000000000000
     0.0000000000000000    6.7020160000000004    0.0000000000000000
     0.0000000000000000    0.0000000000000000    6.7020160000000004
PRESSURE
0.249346 0.243709 0.670661 -0.344709 0.136642 -0.075573
PRIMCOORD
4 1
H       1.68483      1.63419      0.19242         0.205510     -0.117729     -0.039320
H       6.68370      1.61292      0.39423        -0.334423     -0.017452     -0.201207
H       0.96773      1.03482      1.64211         0.288089     -0.828546      1.346657
N       0.89073      1.47510      0.77816        -0.159862      0.964074     -1.105614
