  # total energy =   -19.24858451 
CRSYTAL
PRIMVEC
     6.7020160000000004    0.0000000000000000    0.0000000000000000
     0.0000000000000000    6.7020160000000004    0.0000000000000000
     0.0000000000000000    0.0000000000000000    6.7020160000000004
PRESSURE
0.694201 0.085699 0.168114 -0.061758 0.188573 -0.014702
PRIMCOORD
4 1
H       1.61990      1.80260      0.14524         0.838690     -0.019911      0.163769
H       6.68118      1.59470      0.33650        -0.758203      0.009258     -0.242593
H       0.91544      1.16963      1.67049         0.590371     -0.129645      0.351238
N       0.87917      1.52818      0.74466        -0.671163      0.141111     -0.272446
