  # total energy =   -19.43778120 
CRSYTAL
PRIMVEC
     6.7020160000000004    0.0000000000000000    0.0000000000000000
     0.0000000000000000    6.7020160000000004    0.0000000000000000
     0.0000000000000000    0.0000000000000000    6.7020160000000004
PRESSURE
0.243741 0.118255 0.026695 -0.345549 0.14765 -0.047539
PRIMCOORD
4 1
H       0.00768      3.32809      5.95661        -0.631117      0.434091     -0.232907
H       0.85355      2.02628      6.41124        -0.197637     -0.067298      0.616301
H       0.07079      3.00301      0.90673        -0.294341     -0.379594      0.088373
N       0.53073      2.94189      0.01425         1.122664      0.011256     -0.472654
