  # total energy =   -19.47962138 
CRSYTAL
PRIMVEC
     6.7020160000000004    0.0000000000000000    0.0000000000000000
     0.0000000000000000    6.7020160000000004    0.0000000000000000
     0.0000000000000000    0.0000000000000000    6.7020160000000004
PRESSURE
-0.166457 -0.535805 0.240064 0.038558 -0.266619 0.058718
PRIMCOORD
4 1
H       0.08858      3.29410      6.20652         0.589059     -0.476651      0.147310
H       0.45509      1.71002      6.50842         0.257543      0.734167      0.048214
H       0.04888      2.72231      0.97148        -0.041060      0.019222      0.690377
N       0.63889      2.68097      0.14713        -0.805753     -0.276505     -0.886753
