  # total energy =   -19.17762988 
CRSYTAL
PRIMVEC
     6.7020160000000004    0.0000000000000000    0.0000000000000000
     0.0000000000000000    6.7020160000000004    0.0000000000000000
     0.0000000000000000    0.0000000000000000    6.7020160000000004
PRESSURE
-0.894116 0.314368 0.110005 0.574249 0.336894 -0.198529
PRIMCOORD
4 1
H       6.68301      3.27993      6.19264         0.692948     -0.221980     -0.251261
H       0.41906      1.78666      6.59475         0.625091     -0.828244     -1.226287
H       6.61045      2.66413      0.90715         1.491338      0.956478     -0.272454
N       0.63892      2.75456      0.10735        -2.809897      0.093285      1.750080
