  # total energy =   -19.31792378 
CRSYTAL
PRIMVEC
     6.7020160000000004    0.0000000000000000    0.0000000000000000
     0.0000000000000000    6.7020160000000004    0.0000000000000000
     0.0000000000000000    0.0000000000000000    6.7020160000000004
PRESSURE
0.141879 -0.904831 0.394018 -0.322386 -0.178965 0.48934
PRIMCOORD
4 1
H       0.42672      3.85833      5.30991        -0.601528      1.428113     -0.083520
H       6.50593      5.57947      5.33252         0.261168     -0.640553     -0.588977
H       6.04829      4.45054      6.44705        -0.735795     -0.320470      0.615730
N       0.03767      4.69901      5.78126         1.076341     -0.466997      0.057149
