  # total energy =   -19.47269863 
CRSYTAL
PRIMVEC
     6.7020160000000004    0.0000000000000000    0.0000000000000000
     0.0000000000000000    6.7020160000000004    0.0000000000000000
     0.0000000000000000    0.0000000000000000    6.7020160000000004
PRESSURE
-0.368739 -0.78108 -0.414551 -0.134462 -0.000311 0.389486
PRIMCOORD
4 1
H       0.38494      4.02576      5.17713        -0.535101      1.273387      0.710596
H       6.23926      5.47944      5.03876         0.628584     -0.632906      0.544076
H       5.93630      4.47119      6.27614         0.264779      0.040976     -0.014585
N       0.02221      4.85894      5.73588        -0.357791     -0.681434     -1.240502
