  # total energy =   -19.30919980 
CRSYTAL
PRIMVEC
     6.7020160000000004    0.0000000000000000    0.0000000000000000
     0.0000000000000000    6.7020160000000004    0.0000000000000000
     0.0000000000000000    0.0000000000000000    6.7020160000000004
PRESSURE
-0.894929 -0.117337 -0.365026 -0.087501 -0.332297 -0.424158
PRIMCOORD
4 1
H       1.52193      2.35434      0.20933        -1.106442     -0.372942     -0.150764
H       6.58925      1.58628      0.19324         0.882049      0.567506      0.492991
H       0.93695      1.70835      1.62788        -0.691343     -0.073657     -0.518228
N       0.81812      1.71786      0.61174         0.915866     -0.120484      0.175801
