  # total energy =   -19.41368805 
CRSYTAL
PRIMVEC
     6.7020160000000004    0.0000000000000000    0.0000000000000000
     0.0000000000000000    6.7020160000000004    0.0000000000000000
     0.0000000000000000    0.0000000000000000    6.7020160000000004
PRESSURE
0.11684 0.219299 -0.578406 0.119814 -0.015927 0.162606
PRIMCOORD
4 1
H       0.34663      3.29164      6.22019         0.001414     -0.324423      0.693755
H       0.52093      1.67643      6.47143        -0.374775     -0.797733      0.218180
H       0.26760      2.72328      1.13752        -0.201700     -0.358562     -0.536282
N       0.63102      2.57082      0.19669         0.573877      1.480196     -0.375283
