  # total energy =   -19.27201072 
CRSYTAL
PRIMVEC
     6.7020160000000004    0.0000000000000000    0.0000000000000000
     0.0000000000000000    6.7020160000000004    0.0000000000000000
     0.0000000000000000    0.0000000000000000    6.7020160000000004
PRESSURE
0.703575 0.29729 0.921189 0.065381 -0.492414 0.292768
PRIMCOORD
4 1
H       6.58217      3.46382      5.35572        -0.241023     -0.152195     -0.366330
H       0.97693      4.55811      6.07051         0.710993      0.682884     -0.152721
H       6.39272      3.96188      0.26690        -1.296747      0.070490      1.768423
N       0.21185      3.94548      6.15951         0.827175     -0.600190     -1.249216
