  # total energy =   -19.25208254 
CRSYTAL
PRIMVEC
     6.7020160000000004    0.0000000000000000    0.0000000000000000
     0.0000000000000000    6.7020160000000004    0.0000000000000000
     0.0000000000000000    0.0000000000000000    6.7020160000000004
PRESSURE
-1.18702 -1.28335 -0.412541 -0.311159 0.118386 -0.010002
PRIMCOORD
4 1
H       6.56741      3.68267      5.18794         0.810844      1.314981      0.742360
H       0.07783      5.35240      5.59664         0.503260     -1.526444     -0.080723
H       5.90451      4.36482      6.48901         2.014555     -0.245146     -0.461506
N       0.17263      4.35333      5.96980        -3.328943      0.455522     -0.199828
