  # total energy =   -19.26969328 
CRSYTAL
PRIMVEC
     6.7020160000000004    0.0000000000000000    0.0000000000000000
     0.0000000000000000    6.7020160000000004    0.0000000000000000
     0.0000000000000000    0.0000000000000000    6.7020160000000004
PRESSURE
0.55225 -0.158875 0.980517 -0.449366 -0.53475 0.345562
PRIMCOORD
4 1
H       0.41284      3.88253      5.33423        -0.145145      0.772966     -0.711412
H       6.46290      5.56607      5.33188         0.137553      0.236101     -1.221099
H       6.04894      4.45783      6.40242        -1.576336     -0.625461      1.532998
N       0.03590      4.71888      5.77155         1.584905     -0.385065      0.399153
