  # total energy =   -19.40426138 
CRSYTAL
PRIMVEC
     6.7020160000000004    0.0000000000000000    0.0000000000000000
     0.0000000000000000    6.7020160000000004    0.0000000000000000
     0.0000000000000000    0.0000000000000000    6.7020160000000004
PRESSURE
-0.716825 -0.754612 -1.02063 0.687279 0.15279 0.167245
PRIMCOORD
4 1
H       1.65025      1.08763      0.15410        -0.846578      0.050970      0.771032
H       0.03033      1.49048      0.46427         0.815109     -0.416757      0.381577
H       0.89502      0.48902      1.59610         0.017578      1.662005     -1.699609
N       0.95989      1.32451      0.90511         0.014609     -1.295690      0.546476
