  # total energy =   -19.39763079 
CRSYTAL
PRIMVEC
     6.7020160000000004    0.0000000000000000    0.0000000000000000
     0.0000000000000000    6.7020160000000004    0.0000000000000000
     0.0000000000000000    0.0000000000000000    6.7020160000000004
PRESSURE
0.150909 -0.215177 -0.424384 0.168303 -0.149212 0.115251
PRIMCOORD
4 1
H       0.39011      3.29832      6.22640         0.010836     -0.629636      0.920764
H       0.52002      1.64499      6.48010        -0.297746     -0.112850      0.412536
H       0.30516      2.70044      1.14513        -0.425905     -0.173426      0.027838
N       0.63076      2.55430      0.20566         0.712635      0.916192     -1.360680
