  # total energy =   -19.40017855 
CRSYTAL
PRIMVEC
     6.7020160000000004    0.0000000000000000    0.0000000000000000
     0.0000000000000000    6.7020160000000004    0.0000000000000000
     0.0000000000000000    0.0000000000000000    6.7020160000000004
PRESSURE
0.420328 0.098224 1.23447 0.090071 0.219052 -0.006708
PRIMCOORD
4 1
H       1.38962      2.45948      0.15069        -0.174581      0.165817      0.046893
H       6.61846      1.65149      0.20248        -0.982372      0.123233     -0.425788
H       0.81810      1.79580      1.55873        -0.053245      0.302449      2.269420
N       0.81978      1.75131      0.59268         1.209765     -0.592087     -1.889822
