  # total energy =   -19.30087753 
CRSYTAL
PRIMVEC
     6.7020160000000004    0.0000000000000000    0.0000000000000000
     0.0000000000000000    6.7020160000000004    0.0000000000000000
     0.0000000000000000    0.0000000000000000    6.7020160000000004
PRESSURE
0.528079 0.179753 0.594412 0.115069 -0.136992 0.171028
PRIMCOORD
4 1
H       6.49222      3.51752      5.40980        -0.223156     -0.013312     -0.373613
H       1.16278      4.16008      6.17235         0.715963      0.521204      0.124664
H       6.42488      3.83521      0.36793        -0.471614      0.299608      1.011476
N       0.25945      3.77214      6.25092        -0.022223     -0.807523     -0.762283
