  # total energy =   -19.30906398 
CRSYTAL
PRIMVEC
     6.7020160000000004    0.0000000000000000    0.0000000000000000
     0.0000000000000000    6.7020160000000004    0.0000000000000000
     0.0000000000000000    0.0000000000000000    6.7020160000000004
PRESSURE
-0.477572 -1.14442 -0.756617 0.197705 0.571567 0.207868
PRIMCOORD
4 1
H       0.42975      3.86212      5.26220        -0.722123      0.935618      0.389374
H       6.60509      5.57200      5.32145         0.038361     -1.463663      0.397641
H       6.03662      4.42907      6.54355         0.960032      0.238814     -1.404023
N       0.04334      4.65648      5.80205        -0.276367      0.289047      0.618528
