  # total energy =   -19.24925296 
CRSYTAL
PRIMVEC
     6.7020160000000004    0.0000000000000000    0.0000000000000000
     0.0000000000000000    6.7020160000000004    0.0000000000000000
     0.0000000000000000    0.0000000000000000    6.7020160000000004
PRESSURE
-1.18819 -0.345222 -0.174459 -0.025916 0.023807 0.316564
PRIMCOORD
4 1
H       6.51438      3.75108      5.18823         0.705145      0.024679      0.256993
H       0.08491      5.26370      5.60313         0.846660     -0.608577      0.106221
H       5.91593      4.37123      6.49859         1.923600     -0.548734     -0.159394
N       0.19232      4.29134      6.00201        -3.475240      1.132956     -0.203955
