  # total energy =   -19.27381468 
CRSYTAL
PRIMVEC
     6.7020160000000004    0.0000000000000000    0.0000000000000000
     0.0000000000000000    6.7020160000000004    0.0000000000000000
     0.0000000000000000    0.0000000000000000    6.7020160000000004
PRESSURE
-0.554875 -0.171324 -0.662711 -0.087448 0.244976 0.339694
PRIMCOORD
4 1
H       6.67518      3.56450      5.77984         0.242374     -0.183190      0.607819
H       1.29299      2.61538      6.40134        -0.872007      0.556909      0.560089
H       0.05306      3.32599      0.81812         0.530449     -0.223328     -0.676341
N       0.42665      3.13850      6.58815         0.098536     -0.150583     -0.492264
