  # total energy =   -19.29237983 
CRSYTAL
PRIMVEC
     6.7020160000000004    0.0000000000000000    0.0000000000000000
     0.0000000000000000    6.7020160000000004    0.0000000000000000
     0.0000000000000000    0.0000000000000000    6.7020160000000004
PRESSURE
-0.443616 -0.122919 -0.203732 0.2246 -0.184742 0.240876
PRIMCOORD
4 1
H       1.74892      1.40289      0.25717        -0.585662      0.123219     -0.412964
H       6.69055      1.61305      0.45529         0.251228     -0.313887     -0.114491
H       1.03836      0.82799      1.65845        -0.693848      0.456734     -0.788262
N       0.90674      1.41098      0.81862         1.026868     -0.265203      1.314235
