  # total energy =   -19.10454500 
CRSYTAL
PRIMVEC
     6.7020160000000004    0.0000000000000000    0.0000000000000000
     0.0000000000000000    6.7020160000000004    0.0000000000000000
     0.0000000000000000    0.0000000000000000    6.7020160000000004
PRESSURE
-0.873525 0.305799 0.273835 0.513612 0.399811 -0.402425
PRIMCOORD
4 1
H       6.66141      3.26660      6.18436         0.472636      0.087930     -0.579542
H       0.41951      1.80178      6.60129         0.821641     -0.687663     -1.258267
H       6.58930      2.66177      0.88023         1.527467      1.127842     -0.119776
N       0.63452      2.78166      0.09505        -2.822970     -0.527989      1.957708
