  # total energy =   -19.11074438 
CRSYTAL
PRIMVEC
     6.7020160000000004    0.0000000000000000    0.0000000000000000
     0.0000000000000000    6.7020160000000004    0.0000000000000000
     0.0000000000000000    0.0000000000000000    6.7020160000000004
PRESSURE
-0.893296 0.331498 0.234859 0.535751 0.399622 -0.364105
PRIMCOORD
4 1
H       6.66487      3.26919      6.18649         0.519547      0.028968     -0.516901
H       0.41854      1.79985      6.60156         0.782267     -0.761531     -1.272453
H       6.59150      2.66093      0.88563         1.549501      1.109873     -0.170418
N       0.63561      2.77649      0.09724        -2.852332     -0.377431      1.959866
