  # total energy =   -19.43183697 
CRSYTAL
PRIMVEC
     6.7020160000000004    0.0000000000000000    0.0000000000000000
     0.0000000000000000    6.7020160000000004    0.0000000000000000
     0.0000000000000000    0.0000000000000000    6.7020160000000004
PRESSURE
0.237857 0.148256 0.954253 0.31944 -0.380991 -0.256389
PRIMCOORD
4 1
H       6.62629      3.85292      5.72006        -0.058147     -0.048985     -0.440479
H       1.34016      3.54717      6.43075         0.200305     -0.336658     -0.459925
H       0.10357      3.81937      0.55654        -0.943037      0.692072      1.832563
N       0.34649      3.29553      6.46078         0.802084     -0.306027     -0.931832
