  # total energy =   -19.49961495 
CRSYTAL
PRIMVEC
     6.7020160000000004    0.0000000000000000    0.0000000000000000
     0.0000000000000000    6.7020160000000004    0.0000000000000000
     0.0000000000000000    0.0000000000000000    6.7020160000000004
PRESSURE
0.290862 0.564527 0.443569 -0.320167 -0.218595 0.057716
PRIMCOORD
4 1
H       1.52159      0.71349      0.22761         0.364331     -0.013423     -0.483423
H       0.21159      1.51620      0.70565        -0.273238      0.290241     -0.120357
H       0.72825      0.24231      1.50162        -0.442957     -1.124033      0.865626
N       1.05094      1.06422      1.05001         0.351997      0.846891     -0.261444
