  # total energy =   -19.46030095 
CRSYTAL
PRIMVEC
     6.7020160000000004    0.0000000000000000    0.0000000000000000
     0.0000000000000000    6.7020160000000004    0.0000000000000000
     0.0000000000000000    0.0000000000000000    6.7020160000000004
PRESSURE
-0.165656 -0.074992 -0.065777 0.140183 0.013755 0.160649
PRIMCOORD
4 1
H       1.68554      1.17846      0.20554        -0.393567     -0.001379     -0.129637
H       0.03377      1.53711      0.47585         0.006618     -0.332142     -0.140684
H       0.95234      0.61274      1.58967        -0.329337      0.189346     -0.383439
N       0.94155      1.34781      0.87881         0.716464      0.143734      0.654370
