  # total energy =   -19.33759502 
CRSYTAL
PRIMVEC
     6.7020160000000004    0.0000000000000000    0.0000000000000000
     0.0000000000000000    6.7020160000000004    0.0000000000000000
     0.0000000000000000    0.0000000000000000    6.7020160000000004
PRESSURE
0.098929 -0.153128 -0.158259 -0.037705 0.039345 -0.038689
PRIMCOORD
4 1
H       0.60577      3.26664      6.33553        -0.233727      0.085838     -0.107956
H       0.49898      1.53958      6.56872        -0.137110      0.377007     -0.060526
H       0.45314      2.58641      1.22894        -0.120218      0.121534     -0.366859
N       0.63418      2.47043      0.23954         0.491397     -0.584511      0.535874
