  # total energy =   -19.19305598 
CRSYTAL
PRIMVEC
     6.7020160000000004    0.0000000000000000    0.0000000000000000
     0.0000000000000000    6.7020160000000004    0.0000000000000000
     0.0000000000000000    0.0000000000000000    6.7020160000000004
PRESSURE
0.637046 -0.273689 1.2067 -0.119934 0.030122 0.463154
PRIMCOORD
4 1
H       0.97600      2.83594      0.19161         0.845289     -0.295411     -1.047187
H       6.58395      1.79290      0.15950        -1.121296     -0.803179     -0.716954
H       0.57940      2.25561      1.40431        -0.075184     -0.673752      1.887654
N       0.82029      1.85879      0.50983         0.350195      1.772692     -0.123150
