  # total energy =   -19.28412999 
CRSYTAL
PRIMVEC
     6.7020160000000004    0.0000000000000000    0.0000000000000000
     0.0000000000000000    6.7020160000000004    0.0000000000000000
     0.0000000000000000    0.0000000000000000    6.7020160000000004
PRESSURE
0.595862 0.307467 0.887826 0.078424 -0.405131 0.27571
PRIMCOORD
4 1
H       6.58053      3.46228      5.36280        -0.221997     -0.228806     -0.755545
H       0.92182      4.65111      6.06973         0.612671      0.604034     -0.422149
H       6.37438      4.00175      0.24961        -1.088791      0.008151      1.306767
N       0.20628      3.97603      6.13912         0.698773     -0.384444     -0.129193
