  # total energy =   -19.38736748 
CRSYTAL
PRIMVEC
     6.7020160000000004    0.0000000000000000    0.0000000000000000
     0.0000000000000000    6.7020160000000004    0.0000000000000000
     0.0000000000000000    0.0000000000000000    6.7020160000000004
PRESSURE
-0.295329 -0.494094 0.264513 0.062323 0.053366 -0.233229
PRIMCOORD
4 1
H       6.64488      3.92196      5.71197        -0.198282     -0.592293     -0.260841
H       1.33609      3.66362      6.37147        -0.674494     -0.819397      0.113598
H       0.04756      3.90420      0.53949        -0.123998     -0.484297      0.397624
N       0.34037      3.30933      6.44925         0.997171      1.896376     -0.250590
