  # total energy =   -19.44250950 
CRSYTAL
PRIMVEC
     6.7020160000000004    0.0000000000000000    0.0000000000000000
     0.0000000000000000    6.7020160000000004    0.0000000000000000
     0.0000000000000000    0.0000000000000000    6.7020160000000004
PRESSURE
-0.650568 -1.03125 -0.438898 0.041918 0.120602 0.388279
PRIMCOORD
4 1
H       0.39005      4.00348      5.20115        -0.609677      1.393874      0.490503
H       6.24051      5.50425      5.06409         0.793414     -0.976350      0.528667
H       5.92597      4.46166      6.29340         0.787678      0.310726     -0.388462
N       0.02543      4.84873      5.73680        -0.970375     -0.728320     -0.631682
