  # total energy =   -19.37425634 
CRSYTAL
PRIMVEC
     6.7020160000000004    0.0000000000000000    0.0000000000000000
     0.0000000000000000    6.7020160000000004    0.0000000000000000
     0.0000000000000000    0.0000000000000000    6.7020160000000004
PRESSURE
-0.736012 -0.713075 0.03593 0.428495 0.187855 0.079881
PRIMCOORD
4 1
H       0.38762      3.97500      5.28804        -0.085938      0.374978     -0.805054
H       6.27313      5.54780      5.16125         0.749543     -1.088214     -0.172760
H       5.92627      4.44490      6.33157         1.273812      0.591411     -0.700263
N       0.03280      4.81394      5.73942        -1.937112      0.121179      1.677881
