  # total energy =   -19.41699887 
CRSYTAL
PRIMVEC
     6.7020160000000004    0.0000000000000000    0.0000000000000000
     0.0000000000000000    6.7020160000000004    0.0000000000000000
     0.0000000000000000    0.0000000000000000    6.7020160000000004
PRESSURE
0.084373 0.531029 -0.627197 0.039562 0.109481 0.179217
PRIMCOORD
4 1
H       0.30981      3.28440      6.21834        -0.044561     -0.018637      0.420528
H       0.51986      1.69915      6.46519        -0.415823     -1.241230      0.093064
H       0.23481      2.74085      1.12847        -0.002862     -0.498526     -0.893485
N       0.63145      2.58533      0.18897         0.462319      1.758104      0.380118
