  # total energy =   -19.43511751 
CRSYTAL
PRIMVEC
     6.7020160000000004    0.0000000000000000    0.0000000000000000
     0.0000000000000000    6.7020160000000004    0.0000000000000000
     0.0000000000000000    0.0000000000000000    6.7020160000000004
PRESSURE
0.634172 0.602719 0.937975 -0.062322 -0.503813 0.010979
PRIMCOORD
4 1
H       0.01807      3.72350      5.23433         0.180724     -0.345749     -1.050670
H       0.12241      5.34861      5.55339         0.000788      0.986130     -0.795195
H       6.02780      4.33137      6.48318        -1.468355      0.020272      1.314215
N       0.12819      4.43175      5.92828         1.287100     -0.660952      0.532095
