  # total energy =   -19.32647138 
CRSYTAL
PRIMVEC
     6.7020160000000004    0.0000000000000000    0.0000000000000000
     0.0000000000000000    6.7020160000000004    0.0000000000000000
     0.0000000000000000    0.0000000000000000    6.7020160000000004
PRESSURE
-0.43743 -0.739395 -0.771662 0.300785 0.574989 0.042768
PRIMCOORD
4 1
H       0.42183      3.87658      5.25379        -0.517823      0.333476      0.217687
H       6.63260      5.55394      5.32123        -0.105850     -1.171908      0.442463
H       6.04137      4.42516      6.55695         1.002399      0.244384     -1.510093
N       0.04480      4.64532      5.80790        -0.378790      0.594063      0.850781
