  # total energy =   -19.45349305 
CRSYTAL
PRIMVEC
     6.7020160000000004    0.0000000000000000    0.0000000000000000
     0.0000000000000000    6.7020160000000004    0.0000000000000000
     0.0000000000000000    0.0000000000000000    6.7020160000000004
PRESSURE
0.527384 0.688572 0.475917 -0.486258 -0.127881 -0.145674
PRIMCOORD
4 1
H       1.54094      0.97506      0.15640         0.684000     -0.100431     -0.279368
H       0.08818      1.40171      0.48362        -0.684019      0.495899     -0.114060
H       0.82735      0.46681      1.46673        -0.026841     -1.451834      1.194132
N       0.98310      1.28681      0.94128         0.025669      1.055911     -0.800381
