  # total energy =   -19.23919771 
CRSYTAL
PRIMVEC
     6.7020160000000004    0.0000000000000000    0.0000000000000000
     0.0000000000000000    6.7020160000000004    0.0000000000000000
     0.0000000000000000    0.0000000000000000    6.7020160000000004
PRESSURE
-0.135634 -0.147297 1.20055 0.195342 -0.470241 0.183311
PRIMCOORD
4 1
H       6.67226      3.55424      5.85211         0.144713     -0.119207     -0.215309
H       1.23660      2.46708      6.49429        -0.660062      0.535899     -0.282532
H       0.11779      3.22320      0.79944        -0.947129      0.378471      2.332658
N       0.44229      3.09877      6.60866         1.461320     -0.793773     -1.835908
