  # total energy =   -19.24451399 
CRSYTAL
PRIMVEC
     6.7020160000000004    0.0000000000000000    0.0000000000000000
     0.0000000000000000    6.7020160000000004    0.0000000000000000
     0.0000000000000000    0.0000000000000000    6.7020160000000004
PRESSURE
-0.740666 -0.16759 -1.13559 -0.060891 0.549988 -0.283819
PRIMCOORD
4 1
H       6.57150      3.45924      5.33263        -0.006222      0.311596      0.655441
H       1.06059      4.49759      6.06458        -0.972445     -0.441292      0.334697
H       6.35332      3.92655      0.35929         1.040489      0.110094     -1.732662
N       0.22028      3.91315      6.17592        -0.060657      0.019656      0.743591
