  # total energy =   -19.35539767 
CRSYTAL
PRIMVEC
     6.7020160000000004    0.0000000000000000    0.0000000000000000
     0.0000000000000000    6.7020160000000004    0.0000000000000000
     0.0000000000000000    0.0000000000000000    6.7020160000000004
PRESSURE
-0.765725 -0.762986 -1.36048 0.163483 0.753877 -0.239697
PRIMCOORD
4 1
H       6.55692      3.68030      5.19215        -0.020576      0.256725      0.996976
H       0.44390      5.13296      5.69029        -0.601431     -1.359668      0.947836
H       6.07919      4.23437      0.07465         1.638002      0.038916     -1.866171
N       0.19456      4.15997      6.05808        -1.015641      1.063458     -0.078299
