  # total energy =   -19.31976415 
CRSYTAL
PRIMVEC
     6.7020160000000004    0.0000000000000000    0.0000000000000000
     0.0000000000000000    6.7020160000000004    0.0000000000000000
     0.0000000000000000    0.0000000000000000    6.7020160000000004
PRESSURE
0.142445 -0.954459 0.031943 0.104137 -0.173153 -0.064211
PRIMCOORD
4 1
H       0.53527      3.29334      6.28218        -0.166897     -0.785754      0.756584
H       0.50847      1.55193      6.52750        -0.075129      1.244580      0.535477
H       0.41284      2.62190      1.18530        -0.485806      0.196310      0.829102
N       0.63186      2.50001      0.23090         0.727294     -0.655616     -2.121043
