  # total energy =   -19.27438788 
CRSYTAL
PRIMVEC
     6.7020160000000004    0.0000000000000000    0.0000000000000000
     0.0000000000000000    6.7020160000000004    0.0000000000000000
     0.0000000000000000    0.0000000000000000    6.7020160000000004
PRESSURE
-0.230945 -0.621788 -1.42433 0.011686 0.671187 -0.07466
PRIMCOORD
4 1
H       0.25145      3.79623      5.13148        -0.778857      0.700426      1.624004
H       0.13960      5.42392      5.37538        -0.692617     -0.664453      1.085934
H       6.04456      4.34980      6.59478         0.455449      0.299724     -1.270841
N       0.08190      4.51927      5.88768         1.015582     -0.336252     -1.438701
