  # total energy =   -19.30166351 
CRSYTAL
PRIMVEC
     6.7020160000000004    0.0000000000000000    0.0000000000000000
     0.0000000000000000    6.7020160000000004    0.0000000000000000
     0.0000000000000000    0.0000000000000000    6.7020160000000004
PRESSURE
0.103125 0.55112 0.011973 0.133405 0.091403 0.082317
PRIMCOORD
4 1
H       0.67517      3.24603      6.38681        -0.171401      0.272579     -0.445975
H       0.47459      1.53183      6.60486        -0.332115     -0.913786     -0.741006
H       0.49384      2.55176      1.25208        -0.042639      0.083363     -0.471213
N       0.63960      2.43281      0.25399         0.545649      0.558900      1.656486
