  # total energy =   -19.39736088 
CRSYTAL
PRIMVEC
     6.7020160000000004    0.0000000000000000    0.0000000000000000
     0.0000000000000000    6.7020160000000004    0.0000000000000000
     0.0000000000000000    0.0000000000000000    6.7020160000000004
PRESSURE
-0.58639 0.154736 0.051281 0.119467 -0.053318 0.091198
PRIMCOORD
4 1
H       6.63379      3.64162      5.70688         0.131019      0.230838      0.288495
H       1.39625      3.07309      6.41410        -1.055440      0.415159      0.142375
H       0.09158      3.55661      0.71611        -0.116325      0.506962      0.404649
N       0.37812      3.23456      6.51979         1.041267     -1.154389     -0.836138
