  # total energy =   -19.46388615 
CRSYTAL
PRIMVEC
     6.7020160000000004    0.0000000000000000    0.0000000000000000
     0.0000000000000000    6.7020160000000004    0.0000000000000000
     0.0000000000000000    0.0000000000000000    6.7020160000000004
PRESSURE
0.32238 0.33737 0.295167 0.381435 0.206004 0.1743
PRIMCOORD
4 1
H       0.93205      2.90516      6.59664        -0.028272      0.327879      0.445866
H       6.67243      1.61616      0.03943        -0.744138     -0.541080     -0.575182
H       0.52611      2.20373      1.39962         0.077416      0.704679      0.607975
N       0.76796      2.06347      0.43746         0.695571     -0.490840     -0.478921
