  # total energy =   -19.43589365 
CRSYTAL
PRIMVEC
     6.7020160000000004    0.0000000000000000    0.0000000000000000
     0.0000000000000000    6.7020160000000004    0.0000000000000000
     0.0000000000000000    0.0000000000000000    6.7020160000000004
PRESSURE
-0.568083 -0.523606 -0.71704 0.546735 0.094508 0.207351
PRIMCOORD
4 1
H       1.67270      1.13355      0.17754        -0.760573      0.019052      0.419301
H       0.02865      1.51674      0.46903         0.559812     -0.441822      0.173007
H       0.92506      0.54442      1.60111        -0.178945      1.207777     -1.378667
N       0.95044      1.33667      0.89145         0.379749     -0.784354      0.786124
