  # total energy =   -19.30174858 
CRSYTAL
PRIMVEC
     6.7020160000000004    0.0000000000000000    0.0000000000000000
     0.0000000000000000    6.7020160000000004    0.0000000000000000
     0.0000000000000000    0.0000000000000000    6.7020160000000004
PRESSURE
0.439942 0.235524 0.669007 0.053531 -0.289304 0.207031
PRIMCOORD
4 1
H       6.57944      3.46116      5.36130        -0.185005     -0.169379     -0.701322
H       0.91726      4.66631      6.06842         0.432293      0.442520     -0.432599
H       6.36683      4.00723      0.25401        -0.794653     -0.006828      0.845538
N       0.20575      3.98000      6.13616         0.548111     -0.267109      0.288159
