  # total energy =   -19.36429462 
CRSYTAL
PRIMVEC
     6.7020160000000004    0.0000000000000000    0.0000000000000000
     0.0000000000000000    6.7020160000000004    0.0000000000000000
     0.0000000000000000    0.0000000000000000    6.7020160000000004
PRESSURE
-0.749517 -0.735144 -1.30824 0.153426 0.766506 -0.244762
PRIMCOORD
4 1
H       6.55963      3.67353      5.19794        -0.054453      0.253902      0.904837
H       0.45622      5.12657      5.70008        -0.625495     -1.311714      0.886749
H       6.08583      4.22948      0.08131         1.612957      0.047986     -1.874635
N       0.19421      4.15690      6.05880        -0.932538      1.009358      0.083756
