  # total energy =   -19.29785754 
CRSYTAL
PRIMVEC
     6.7020160000000004    0.0000000000000000    0.0000000000000000
     0.0000000000000000    6.7020160000000004    0.0000000000000000
     0.0000000000000000    0.0000000000000000    6.7020160000000004
PRESSURE
0.10094 0.653852 -0.070365 0.084738 0.107943 0.084367
PRIMCOORD
4 1
H       0.66365      3.24670      6.38071        -0.175429      0.450898     -0.536070
H       0.48097      1.53791      6.60216        -0.334649     -0.971039     -0.743290
H       0.48645      2.55762      1.25258        -0.014845      0.075307     -0.676688
N       0.63837      2.43966      0.25047         0.524524      0.445780      1.954562
