  # total energy =   -19.46967210 
CRSYTAL
PRIMVEC
     6.7020160000000004    0.0000000000000000    0.0000000000000000
     0.0000000000000000    6.7020160000000004    0.0000000000000000
     0.0000000000000000    0.0000000000000000    6.7020160000000004
PRESSURE
0.310684 0.285042 0.373017 0.397924 0.179743 0.154473
PRIMCOORD
4 1
H       0.93174      2.90765      6.60249        -0.038399      0.226432      0.457695
H       6.66766      1.61940      0.04158        -0.703521     -0.510332     -0.559574
H       0.52616      2.20709      1.39637         0.038272      0.694870      0.774947
N       0.76918      2.05968      0.43878         0.704540     -0.410199     -0.673576
