  # total energy =   -19.28163415 
CRSYTAL
PRIMVEC
     6.7020160000000004    0.0000000000000000    0.0000000000000000
     0.0000000000000000    6.7020160000000004    0.0000000000000000
     0.0000000000000000    0.0000000000000000    6.7020160000000004
PRESSURE
-0.032855 -0.367074 -1.18503 -0.079712 0.474509 -0.005693
PRIMCOORD
4 1
H       0.27211      3.81273      5.13261        -0.807944      0.536864      1.597088
H       0.13162      5.42089      5.36655        -0.678280     -0.303394      0.974868
H       6.06188      4.36021      6.58439        -0.083377      0.139005     -0.757953
N       0.07642      4.52974      5.88252         1.569117     -0.373059     -1.813634
