  # total energy =   -19.20373801 
CRSYTAL
PRIMVEC
     6.7020160000000004    0.0000000000000000    0.0000000000000000
     0.0000000000000000    6.7020160000000004    0.0000000000000000
     0.0000000000000000    0.0000000000000000    6.7020160000000004
PRESSURE
-0.208586 -0.105533 -1.32367 0.470354 0.080369 -0.048061
PRIMCOORD
4 1
H       1.62300      1.87380      0.12851         0.083901     -0.235913      0.758658
H       6.64888      1.58820      0.30064         0.492550     -0.060170      0.367238
H       0.91538      1.21003      1.72043         0.413631      0.722934     -1.880819
N       0.87262      1.55222      0.72812        -0.989321     -0.427576      0.755084
