  # total energy =   -19.45616288 
CRSYTAL
PRIMVEC
     6.7020160000000004    0.0000000000000000    0.0000000000000000
     0.0000000000000000    6.7020160000000004    0.0000000000000000
     0.0000000000000000    0.0000000000000000    6.7020160000000004
PRESSURE
-0.395206 -0.325297 -0.436448 0.377916 0.054941 0.193918
PRIMCOORD
4 1
H       1.67960      1.15515      0.19081        -0.607989      0.005718      0.168641
H       0.03074      1.52702      0.47228         0.317994     -0.400735      0.029372
H       0.93850      0.57637      1.59677        -0.260645      0.777227     -0.977290
N       0.94612      1.34206      0.88530         0.550673     -0.381216      0.779320
