  # total energy =   -19.23236602 
CRSYTAL
PRIMVEC
     6.7020160000000004    0.0000000000000000    0.0000000000000000
     0.0000000000000000    6.7020160000000004    0.0000000000000000
     0.0000000000000000    0.0000000000000000    6.7020160000000004
PRESSURE
-0.269155 -0.020263 -1.1106 -0.246344 0.545461 0.136563
PRIMCOORD
4 1
H       6.68254      3.56502      5.75736        -0.033538      0.042937      0.514931
H       1.29876      2.70230      6.36758        -0.157398      0.138017      0.724466
H       0.02921      3.37291      0.82233         1.017868     -0.419741     -1.578000
N       0.41959      3.15742      6.57675        -0.826728      0.239293      0.337636
