  # total energy =   -19.41491768 
CRSYTAL
PRIMVEC
     6.7020160000000004    0.0000000000000000    0.0000000000000000
     0.0000000000000000    6.7020160000000004    0.0000000000000000
     0.0000000000000000    0.0000000000000000    6.7020160000000004
PRESSURE
-0.675339 -0.660995 -0.903377 0.647339 0.126238 0.202473
PRIMCOORD
4 1
H       1.66464      1.11385      0.16637        -0.844359      0.033470      0.608562
H       0.02803      1.50633      0.46646         0.721286     -0.453096      0.282956
H       0.91236      0.51798      1.60192        -0.095602      1.487650     -1.609702
N       0.95446      1.33161      0.89720         0.218966     -1.067786      0.717446
