  # total energy =   -19.33162662 
CRSYTAL
PRIMVEC
     6.7020160000000004    0.0000000000000000    0.0000000000000000
     0.0000000000000000    6.7020160000000004    0.0000000000000000
     0.0000000000000000    0.0000000000000000    6.7020160000000004
PRESSURE
0.204129 0.39105 0.261018 0.040486 0.033674 0.202172
PRIMCOORD
4 1
H       0.90073      3.05337      6.50920        -0.093064      0.270365     -0.234549
H       0.25754      1.47794      6.61368        -0.634427     -0.691432     -0.300569
H       0.62088      2.37861      1.34156        -0.271649     -0.083838      0.256270
N       0.68966      2.24472      0.35388         0.999141      0.504339      0.277913
