  # total energy =   -19.19806408 
CRSYTAL
PRIMVEC
     6.7020160000000004    0.0000000000000000    0.0000000000000000
     0.0000000000000000    6.7020160000000004    0.0000000000000000
     0.0000000000000000    0.0000000000000000    6.7020160000000004
PRESSURE
-0.459768 0.088276 -0.648659 -0.189059 -0.558912 -0.122
PRIMCOORD
4 1
H       1.59140      2.20958      0.25843        -0.574359      0.181132     -0.803601
H       6.61580      1.55429      0.21738         0.218441      0.383183      0.185433
H       1.01247      1.60280      1.66320        -1.147036     -0.119640     -1.396658
N       0.82234      1.67787      0.63590         1.501968     -0.444744      2.013464
