  # total energy =   -19.23275656 
CRSYTAL
PRIMVEC
     6.7020160000000004    0.0000000000000000    0.0000000000000000
     0.0000000000000000    6.7020160000000004    0.0000000000000000
     0.0000000000000000    0.0000000000000000    6.7020160000000004
PRESSURE
0.426495 0.206669 0.577183 -0.28447 -0.186034 0.133836
PRIMCOORD
4 1
H       1.59663      2.14229      0.25741         0.119632      0.551176     -1.044969
H       6.64588      1.55553      0.24012        -0.959509      0.145585     -0.400994
H       1.00787      1.54856      1.62767        -0.719039     -0.259571      0.534574
N       0.82793      1.65803      0.65197         1.559278     -0.438657      0.910542
