  # total energy =   -19.14189445 
CRSYTAL
PRIMVEC
     6.7020160000000004    0.0000000000000000    0.0000000000000000
     0.0000000000000000    6.7020160000000004    0.0000000000000000
     0.0000000000000000    0.0000000000000000    6.7020160000000004
PRESSURE
0.327906 -0.398042 0.486097 -0.619902 0.070562 0.518437
PRIMCOORD
4 1
H       0.93339      2.87584      0.20062         0.835527     -0.120216     -1.405477
H       6.57448      1.76964      0.13454        -0.598169     -0.618605     -0.419722
H       0.55430      2.33546      1.41165         0.174661     -1.543596      0.384165
N       0.81572      1.88869      0.49093        -0.412842      2.282946      1.442739
