  # total energy =   -19.28944261 
CRSYTAL
PRIMVEC
     6.7020160000000004    0.0000000000000000    0.0000000000000000
     0.0000000000000000    6.7020160000000004    0.0000000000000000
     0.0000000000000000    0.0000000000000000    6.7020160000000004
PRESSURE
-0.729552 -0.117035 -0.681801 0.349657 -0.074652 0.109069
PRIMCOORD
4 1
H       1.73029      1.55251      0.21208        -0.718789     -0.141767      0.207538
H       6.66417      1.62200      0.41138         0.770410     -0.284734      0.193479
H       1.00522      0.94093      1.68586        -0.294505      0.527318     -1.215079
N       0.89568      1.45236      0.79077         0.242735     -0.100552      0.814658
