  # total energy =   -19.38611338 
CRSYTAL
PRIMVEC
     6.7020160000000004    0.0000000000000000    0.0000000000000000
     0.0000000000000000    6.7020160000000004    0.0000000000000000
     0.0000000000000000    0.0000000000000000    6.7020160000000004
PRESSURE
-0.567148 -0.151032 0.091424 0.376146 0.016443 0.02031
PRIMCOORD
4 1
H       0.03255      3.29393      6.19963         0.783374     -0.534603      0.102929
H       0.43429      1.74432      6.55418         0.414857     -0.041794     -0.668855
H       6.68006      2.69137      0.94256         0.787089      0.439638      0.063791
N       0.64061      2.71293      0.12935        -1.985921      0.136826      0.503199
