  # total energy =   -19.24033602 
CRSYTAL
PRIMVEC
     6.7020160000000004    0.0000000000000000    0.0000000000000000
     0.0000000000000000    6.7020160000000004    0.0000000000000000
     0.0000000000000000    0.0000000000000000    6.7020160000000004
PRESSURE
-0.651433 -0.081593 -1.17257 0.38808 0.025558 -0.118027
PRIMCOORD
4 1
H       1.62896      1.95144      0.14109        -0.472154     -0.323769      0.852320
H       6.63080      1.57802      0.27233         0.923682      0.013665      0.539133
H       0.93285      1.28975      1.70482         0.182528      0.554891     -1.478766
N       0.86153      1.58084      0.70960        -0.632534     -0.244976      0.086933
