  # total energy =   -19.44449832 
CRSYTAL
PRIMVEC
     6.7020160000000004    0.0000000000000000    0.0000000000000000
     0.0000000000000000    6.7020160000000004    0.0000000000000000
     0.0000000000000000    0.0000000000000000    6.7020160000000004
PRESSURE
-0.407214 -0.03117 -1.11402 0.165698 0.124739 0.063515
PRIMCOORD
4 1
H       1.19813      2.63575      0.09200         0.064976     -0.153329      0.702821
H       6.55894      1.74825      0.17360         0.730576     -0.204789      0.298997
H       0.66285      1.95800      1.59700         0.525124      0.155057     -1.585056
N       0.82926      1.79158      0.55835        -1.320558      0.204859      0.583668
