  # total energy =   -19.48160492 
CRSYTAL
PRIMVEC
     6.7020160000000004    0.0000000000000000    0.0000000000000000
     0.0000000000000000    6.7020160000000004    0.0000000000000000
     0.0000000000000000    0.0000000000000000    6.7020160000000004
PRESSURE
0.292048 0.22234 -0.44558 0.122644 0.238648 0.139481
PRIMCOORD
4 1
H       1.26340      2.56111      0.10382         0.229017      0.410674      0.386443
H       6.59643      1.71571      0.19076        -0.519910     -0.128385     -0.209638
H       0.71165      1.88860      1.59180         0.349321      0.366175     -0.711668
N       0.82562      1.77794      0.57058        -0.059906     -0.647613      0.535987
