  # total energy =   -19.44414640 
CRSYTAL
PRIMVEC
     6.7020160000000004    0.0000000000000000    0.0000000000000000
     0.0000000000000000    6.7020160000000004    0.0000000000000000
     0.0000000000000000    0.0000000000000000    6.7020160000000004
PRESSURE
-0.573755 -0.225926 -0.865317 0.198702 0.044392 0.062271
PRIMCOORD
4 1
H       1.15711      2.68336      0.09787         0.050425     -0.529214      0.708979
H       6.54589      1.76558      0.16708         1.026149     -0.295830      0.370041
H       0.64117      2.00747      1.56970         0.490859      0.019287     -1.138321
N       0.82994      1.80067      0.55119        -1.566952      0.806502      0.058828
