  # total energy =   -19.22388958 
CRSYTAL
PRIMVEC
     6.7020160000000004    0.0000000000000000    0.0000000000000000
     0.0000000000000000    6.7020160000000004    0.0000000000000000
     0.0000000000000000    0.0000000000000000    6.7020160000000004
PRESSURE
0.956225 0.409544 1.33989 0.104432 -0.691495 0.403553
PRIMCOORD
4 1
H       6.58322      3.46486      5.36152        -0.288429     -0.274007     -0.641988
H       0.95501      4.58136      6.07193         1.007387      0.919716     -0.281351
H       6.39659      3.97363      0.24876        -1.805308      0.062072      2.506468
N       0.20976      3.95497      6.15389         1.087298     -0.707302     -1.583469
