  # total energy =   -19.36655065 
CRSYTAL
PRIMVEC
     6.7020160000000004    0.0000000000000000    0.0000000000000000
     0.0000000000000000    6.7020160000000004    0.0000000000000000
     0.0000000000000000    0.0000000000000000    6.7020160000000004
PRESSURE
0.558552 0.446057 0.456593 -0.486422 -0.195369 -0.279547
PRIMCOORD
4 1
H       1.48944      0.88138      0.15778         0.921788      0.121648     -0.363548
H       0.10178      1.36281      0.50131        -0.702773      0.878012     -0.085873
H       0.77716      0.38821      1.41243         0.117904     -0.911728      1.192180
N       1.00100      1.25947      0.96630        -0.336222     -0.087939     -0.742579
