  # total energy =   -19.39300019 
CRSYTAL
PRIMVEC
     6.7020160000000004    0.0000000000000000    0.0000000000000000
     0.0000000000000000    6.7020160000000004    0.0000000000000000
     0.0000000000000000    0.0000000000000000    6.7020160000000004
PRESSURE
-0.062124 0.403328 -0.769258 0.076215 0.161619 -0.021689
PRIMCOORD
4 1
H       0.93514      2.89933      6.54778        -0.017803      0.904686      0.344289
H       6.70115      1.56404      6.70083         0.122253      0.082362      0.036689
H       0.53235      2.19301      1.43563         0.339836      0.692434     -1.198440
N       0.75598      2.10220      0.42334        -0.444707     -1.680302      0.817525
