  # total energy =   -19.22557359 
CRSYTAL
PRIMVEC
     6.7020160000000004    0.0000000000000000    0.0000000000000000
     0.0000000000000000    6.7020160000000004    0.0000000000000000
     0.0000000000000000    0.0000000000000000    6.7020160000000004
PRESSURE
-0.003038 0.157035 -0.11483 -0.227761 -0.399143 0.02488
PRIMCOORD
4 1
H       1.59452      2.17575      0.26052        -0.206922      0.396681     -0.959056
H       6.63149      1.55419      0.22876        -0.387853      0.257131     -0.113647
H       1.01290      1.57685      1.64751        -0.989366     -0.165436     -0.615569
N       0.82475      1.66831      0.64340         1.583673     -0.488739      1.686642
