  # total energy =   -19.48181609 
CRSYTAL
PRIMVEC
     6.7020160000000004    0.0000000000000000    0.0000000000000000
     0.0000000000000000    6.7020160000000004    0.0000000000000000
     0.0000000000000000    0.0000000000000000    6.7020160000000004
PRESSURE
0.252707 0.168355 0.484013 0.412274 0.11627 0.098604
PRIMCOORD
4 1
H       0.93103      2.91306      6.61523        -0.057372      0.023546      0.464856
H       6.65671      1.62508      0.04494        -0.545146     -0.405680     -0.484380
H       0.52629      2.21519      1.39127        -0.030291      0.657522      1.031002
N       0.77175      2.05194      0.44138         0.634070     -0.274755     -1.012294
