  # total energy =   -19.24340398 
CRSYTAL
PRIMVEC
     6.7020160000000004    0.0000000000000000    0.0000000000000000
     0.0000000000000000    6.7020160000000004    0.0000000000000000
     0.0000000000000000    0.0000000000000000    6.7020160000000004
PRESSURE
0.370879 0.782187 1.06315 0.0746 -0.356318 -0.279054
PRIMCOORD
4 1
H       0.38295      3.95190      5.35647         0.861987     -1.248918     -1.984583
H       6.36340      5.54909      5.28172         0.026551      0.532165     -1.579673
H       5.99711      4.45412      6.34947        -0.511517     -0.160505      0.753775
N       0.03508      4.76568      5.75069        -0.375685      0.877460      2.810217
