  # total energy =   -19.23221105 
CRSYTAL
PRIMVEC
     6.7020160000000004    0.0000000000000000    0.0000000000000000
     0.0000000000000000    6.7020160000000004    0.0000000000000000
     0.0000000000000000    0.0000000000000000    6.7020160000000004
PRESSURE
-0.033066 0.058124 -0.991924 -0.272457 0.57312 0.007248
PRIMCOORD
4 1
H       6.68590      3.56527      5.75164        -0.208061      0.184385      0.337573
H       1.29911      2.74229      6.35816         0.264183     -0.057448      0.724842
H       0.02611      3.39054      0.81277         1.020676     -0.394242     -1.499113
N       0.41609      3.16587      6.57184        -1.076354      0.267694      0.435423
