  # total energy =   -19.19573572 
CRSYTAL
PRIMVEC
     6.7020160000000004    0.0000000000000000    0.0000000000000000
     0.0000000000000000    6.7020160000000004    0.0000000000000000
     0.0000000000000000    0.0000000000000000    6.7020160000000004
PRESSURE
0.708462 1.36305 0.637066 -0.259998 -0.545767 -0.003544
PRIMCOORD
4 1
H       0.35396      3.90504      5.19086        -0.173217     -1.320662      0.015854
H       0.06267      5.42106      5.34510        -0.578978      1.887508     -0.238123
H       6.11579      4.41027      6.53650        -2.063371     -0.586861      1.572603
N       0.05375      4.58498      5.84864         2.814353      0.020832     -1.350363
