  # total energy =   -19.42699735 
CRSYTAL
PRIMVEC
     6.7020160000000004    0.0000000000000000    0.0000000000000000
     0.0000000000000000    6.7020160000000004    0.0000000000000000
     0.0000000000000000    0.0000000000000000    6.7020160000000004
PRESSURE
-0.632005 -0.721407 -0.968202 0.61713 0.151647 0.107809
PRIMCOORD
4 1
H       1.63314      1.06455      0.14709        -0.719092      0.055670      0.793119
H       0.03650      1.47425      0.46427         0.747943     -0.323857      0.404572
H       0.87966      0.47171      1.58226         0.106801      1.581041     -1.543508
N       0.96474      1.31772      0.91235        -0.134675     -1.312481      0.345552
