  # total energy =   -19.35985082 
CRSYTAL
PRIMVEC
     6.7020160000000004    0.0000000000000000    0.0000000000000000
     0.0000000000000000    6.7020160000000004    0.0000000000000000
     0.0000000000000000    0.0000000000000000    6.7020160000000004
PRESSURE
0.771565 0.899308 0.206142 -0.360416 -0.315863 -0.206118
PRIMCOORD
4 1
H       0.34767      4.16505      5.11860         0.781820     -1.092680      0.301033
H       6.25350      5.36771      4.95663        -0.625039      1.254961     -0.114917
H       5.96194      4.49614      6.22648        -1.192665     -0.745433      0.989505
N       0.00987      4.89963      5.72592         1.035313      0.582382     -1.175857
