  # total energy =   -19.45176197 
CRSYTAL
PRIMVEC
     6.7020160000000004    0.0000000000000000    0.0000000000000000
     0.0000000000000000    6.7020160000000004    0.0000000000000000
     0.0000000000000000    0.0000000000000000    6.7020160000000004
PRESSURE
-0.036416 0.062263 0.146414 -6.5e-05 -0.004724 0.137019
PRIMCOORD
4 1
H       1.68824      1.19060      0.21315        -0.269523     -0.000605     -0.288407
H       0.03540      1.54205      0.47761        -0.166944     -0.289774     -0.231118
H       0.95926      0.63197      1.58551        -0.353958     -0.153972     -0.017126
N       0.93922      1.35081      0.87547         0.791060      0.443589      0.537735
