  # total energy =   -19.21098747 
CRSYTAL
PRIMVEC
     6.7020160000000004    0.0000000000000000    0.0000000000000000
     0.0000000000000000    6.7020160000000004    0.0000000000000000
     0.0000000000000000    0.0000000000000000    6.7020160000000004
PRESSURE
0.175489 0.176875 -0.415641 0.210996 -0.012021 -0.171345
PRIMCOORD
4 1
H       6.67594      3.53367      5.91429        -0.032582     -0.207447     -0.516488
H       1.13166      2.31516      6.57320         0.389431     -0.498489     -1.019030
H       0.13719      3.12537      0.90445        -0.022488      0.225532     -1.213164
N       0.46745      3.04764      6.62843        -0.334240      0.478977      2.748888
