  # total energy =   -19.46003919 
CRSYTAL
PRIMVEC
     6.7020160000000004    0.0000000000000000    0.0000000000000000
     0.0000000000000000    6.7020160000000004    0.0000000000000000
     0.0000000000000000    0.0000000000000000    6.7020160000000004
PRESSURE
0.060121 0.132896 -0.122261 -0.202866 -0.077984 0.090438
PRIMCOORD
4 1
H       6.44501      3.72264      5.50474         0.224425      0.364425     -0.193809
H       1.23240      3.95430      6.33095         0.300426      0.354005     -0.510668
H       6.52598      3.92052      0.46446         0.046534     -0.095555     -0.454012
N       0.30460      3.56920      6.33036        -0.569429     -0.621394      1.158725
