  # total energy =   -19.23716500 
CRSYTAL
PRIMVEC
     6.7020160000000004    0.0000000000000000    0.0000000000000000
     0.0000000000000000    6.7020160000000004    0.0000000000000000
     0.0000000000000000    0.0000000000000000    6.7020160000000004
PRESSURE
-0.158609 -0.220675 -0.797107 0.334717 -0.03662 0.195019
PRIMCOORD
4 1
H       6.67622      3.51486      5.91685         0.253461     -0.651179      0.117743
H       1.09423      2.22541      6.56248        -0.315200      0.186833     -0.845476
H       0.13554      3.09169      0.92619         0.094029      0.172200     -1.489510
N       0.47948      3.02403      6.64538        -0.032626      0.291595      2.217713
