  # total energy =   -19.42808379 
CRSYTAL
PRIMVEC
     6.7020160000000004    0.0000000000000000    0.0000000000000000
     0.0000000000000000    6.7020160000000004    0.0000000000000000
     0.0000000000000000    0.0000000000000000    6.7020160000000004
PRESSURE
0.087044 0.007339 -0.404126 0.267251 -0.223964 0.11966
PRIMCOORD
4 1
H       6.52726      3.76892      5.17329         0.172142     -0.508988      0.657227
H       0.27551      5.15225      5.61963         0.335817     -0.213928      0.799161
H       6.06353      4.29416      6.62557        -0.218447     -0.059334      0.282634
N       0.19526      4.20119      6.04707        -0.288480      0.783495     -1.738683
