  # total energy =   -19.32273530 
CRSYTAL
PRIMVEC
     6.7020160000000004    0.0000000000000000    0.0000000000000000
     0.0000000000000000    6.7020160000000004    0.0000000000000000
     0.0000000000000000    0.0000000000000000    6.7020160000000004
PRESSURE
0.10792 0.082622 0.022981 0.002458 -0.040908 0.051219
PRIMCOORD
4 1
H       6.57891      3.46137      5.34557        -0.141119      0.059680      0.084912
H       1.01040      4.53357      6.06757         0.023120      0.186435      0.052446
H       6.37786      3.94742      0.30354        -0.222084      0.081996      0.155405
N       0.21500      3.93297      6.16603         0.340789     -0.327644     -0.291614
