  # total energy =   -19.13586988 
CRSYTAL
PRIMVEC
     6.7020160000000004    0.0000000000000000    0.0000000000000000
     0.0000000000000000    6.7020160000000004    0.0000000000000000
     0.0000000000000000    0.0000000000000000    6.7020160000000004
PRESSURE
-0.910379 0.348546 0.165116 0.566367 0.380432 -0.282008
PRIMCOORD
4 1
H       6.67300      3.27455      6.18996         0.611704     -0.095759     -0.384605
H       0.41795      1.79441      6.59976         0.702047     -0.845054     -1.271743
H       6.59890      2.66123      0.89644         1.550588      1.049431     -0.242958
N       0.63747      2.76578      0.10202        -2.865053     -0.109006      1.899292
