  # total energy =   -19.37556807 
CRSYTAL
PRIMVEC
     6.7020160000000004    0.0000000000000000    0.0000000000000000
     0.0000000000000000    6.7020160000000004    0.0000000000000000
     0.0000000000000000    0.0000000000000000    6.7020160000000004
PRESSURE
0.166094 -0.507944 -0.279928 0.183783 -0.216974 0.072578
PRIMCOORD
4 1
H       0.42151      3.30129      6.23365        -0.007544     -0.794518      1.014987
H       0.51841      1.62170      6.48756        -0.237900      0.360842      0.530637
H       0.33102      2.68335      1.15050        -0.547511     -0.046304      0.438093
N       0.63072      2.54260      0.21184         0.792407      0.480828     -1.983107
