  # total energy =   -19.36261071 
CRSYTAL
PRIMVEC
     6.7020160000000004    0.0000000000000000    0.0000000000000000
     0.0000000000000000    6.7020160000000004    0.0000000000000000
     0.0000000000000000    0.0000000000000000    6.7020160000000004
PRESSURE
0.170359 -0.638299 -0.205611 0.186335 -0.239357 0.050227
PRIMCOORD
4 1
H       0.43738      3.30210      6.23822        -0.022957     -0.856712      1.039297
H       0.51737      1.61019      6.49180        -0.208511      0.574920      0.575775
H       0.34362      2.67465      1.15355        -0.589589      0.011589      0.622867
N       0.63075      2.53672      0.21485         0.820192      0.270994     -2.237192
