  # total energy =   -19.29253047 
CRSYTAL
PRIMVEC
     6.7020160000000004    0.0000000000000000    0.0000000000000000
     0.0000000000000000    6.7020160000000004    0.0000000000000000
     0.0000000000000000    0.0000000000000000    6.7020160000000004
PRESSURE
-0.367755 0.026188 -0.482723 0.056978 0.345691 -0.092559
PRIMCOORD
4 1
H       6.54796      3.48088      5.35606        -0.179904      0.080389      0.321746
H       1.11600      4.34798      6.09086        -0.546907     -0.045531      0.466953
H       6.38033      3.87502      0.36282         0.504968      0.197085     -0.658060
N       0.23592      3.85359      6.21051         0.222239     -0.231950     -0.129632
