  # total energy =   -19.23504367 
CRSYTAL
PRIMVEC
     6.7020160000000004    0.0000000000000000    0.0000000000000000
     0.0000000000000000    6.7020160000000004    0.0000000000000000
     0.0000000000000000    0.0000000000000000    6.7020160000000004
PRESSURE
0.029437 -1.39797 0.57329 0.082783 -0.111317 -0.313227
PRIMCOORD
4 1
H       0.77890      3.22509      6.43408        -0.349143     -1.306433      0.373930
H       0.39038      1.44057      6.59126         0.264208      1.624057      0.406393
H       0.56085      2.49935      1.25543        -0.309888      0.079949      1.533446
N       0.65543      2.36424      0.29395         0.395151     -0.397020     -2.313425
