  # total energy =   -19.25457417 
CRSYTAL
PRIMVEC
     6.7020160000000004    0.0000000000000000    0.0000000000000000
     0.0000000000000000    6.7020160000000004    0.0000000000000000
     0.0000000000000000    0.0000000000000000    6.7020160000000004
PRESSURE
0.748486 0.95437 0.72104 0.210585 -0.719598 0.332053
PRIMCOORD
4 1
H       6.51449      3.80716      5.19563         0.125548     -1.284661     -0.546257
H       0.16999      5.14996      5.61246         0.931462      1.388608     -0.021633
H       6.05031      4.33323      6.52259        -1.748430     -0.196304      1.839775
N       0.19441      4.23324      6.03352         0.691534      0.092424     -1.272795
