  # total energy =   -19.15761926 
CRSYTAL
PRIMVEC
     6.7020160000000004    0.0000000000000000    0.0000000000000000
     0.0000000000000000    6.7020160000000004    0.0000000000000000
     0.0000000000000000    0.0000000000000000    6.7020160000000004
PRESSURE
-0.575165 -0.070637 0.575949 0.284208 0.209119 -0.546448
PRIMCOORD
4 1
H       6.64486      3.25249      6.15904         0.250504      0.356274     -0.830348
H       0.44063      1.80685      6.57986         1.003104      0.150185     -0.952764
H       6.59809      2.68591      0.84477         0.987669      1.035290      0.477791
N       0.62413      2.81496      0.08268        -2.242387     -1.540741      1.305427
