  # total energy =   -19.45679613 
CRSYTAL
PRIMVEC
     6.7020160000000004    0.0000000000000000    0.0000000000000000
     0.0000000000000000    6.7020160000000004    0.0000000000000000
     0.0000000000000000    0.0000000000000000    6.7020160000000004
PRESSURE
-0.505909 -0.000764 -0.613167 -0.327152 0.095639 0.057202
PRIMCOORD
4 1
H       6.45016      3.75074      5.50718         0.374151      0.288860      0.105295
H       1.25106      3.95228      6.32716        -0.473640      0.057314     -0.394902
H       6.51952      3.93748      0.48627         0.569726     -0.438740     -1.246074
N       0.30741      3.55136      6.33673        -0.469157      0.093580      1.536215
