  # total energy =   -19.19102466 
CRSYTAL
PRIMVEC
     6.7020160000000004    0.0000000000000000    0.0000000000000000
     0.0000000000000000    6.7020160000000004    0.0000000000000000
     0.0000000000000000    0.0000000000000000    6.7020160000000004
PRESSURE
-1.44716 -0.909943 -0.432314 -0.146431 0.123888 0.198552
PRIMCOORD
4 1
H       6.52640      3.72021      5.18260         0.838908      0.670159      0.643756
H       0.07655      5.30655      5.59991         0.735175     -1.293673      0.137160
H       5.89258      4.37258      6.49924         2.355991     -0.472205     -0.486272
N       0.18757      4.31291      5.99066        -3.929828      1.096472     -0.294179
