  # total energy =   -19.36934802 
CRSYTAL
PRIMVEC
     6.7020160000000004    0.0000000000000000    0.0000000000000000
     0.0000000000000000    6.7020160000000004    0.0000000000000000
     0.0000000000000000    0.0000000000000000    6.7020160000000004
PRESSURE
-0.402569 0.192086 0.475063 0.205733 -0.08381 0.025545
PRIMCOORD
4 1
H       6.64354      3.62863      5.71239        -0.011490      0.272578      0.169872
H       1.38616      3.03733      6.40156        -0.846797      0.388475      0.278307
H       0.08760      3.53136      0.70774        -0.308026      0.743691      1.228643
N       0.38154      3.22851      6.52691         1.166648     -1.406160     -1.676874
