  # total energy =   -19.26588311 
CRSYTAL
PRIMVEC
     6.7020160000000004    0.0000000000000000    0.0000000000000000
     0.0000000000000000    6.7020160000000004    0.0000000000000000
     0.0000000000000000    0.0000000000000000    6.7020160000000004
PRESSURE
-0.534464 -0.150002 -0.804982 -0.122191 0.317129 0.316912
PRIMCOORD
4 1
H       6.67628      3.56476      5.77483         0.209100     -0.155510      0.623864
H       1.29500      2.63048      6.39423        -0.783555      0.495584      0.606920
H       0.04753      3.33499      0.82069         0.657660     -0.277877     -0.930198
N       0.42541      3.14192      6.58610        -0.083645     -0.062082     -0.301260
