  # total energy =   -19.43888823 
CRSYTAL
PRIMVEC
     6.7020160000000004    0.0000000000000000    0.0000000000000000
     0.0000000000000000    6.7020160000000004    0.0000000000000000
     0.0000000000000000    0.0000000000000000    6.7020160000000004
PRESSURE
-0.005597 -0.514554 0.296883 -0.329534 -0.294487 -0.070989
PRIMCOORD
4 1
H       6.63489      3.68539      5.21507         0.542095      0.949320      0.014556
H       0.09534      5.35349      5.58923         0.257543     -0.298404     -0.602608
H       5.97622      4.34910      6.46727        -0.114288     -0.060663      0.656178
N       0.15019      4.39524      5.94818        -0.686020     -0.590005     -0.068524
