  # total energy =   -19.25406317 
CRSYTAL
PRIMVEC
     6.7020160000000004    0.0000000000000000    0.0000000000000000
     0.0000000000000000    6.7020160000000004    0.0000000000000000
     0.0000000000000000    0.0000000000000000    6.7020160000000004
PRESSURE
-1.13626 -0.013755 -1.06183 -0.170823 0.352789 -0.218614
PRIMCOORD
4 1
H       6.44435      3.54110      5.41467         0.487994      0.372524      0.487220
H       1.23418      4.09983      6.23334        -1.255259     -0.228980     -0.075414
H       6.41269      3.84091      0.45588         1.163669     -0.011041     -1.765380
N       0.27344      3.72035      6.26858        -0.395743     -0.132199      1.354527
