  # total energy =   -19.34754584 
CRSYTAL
PRIMVEC
     6.7020160000000004    0.0000000000000000    0.0000000000000000
     0.0000000000000000    6.7020160000000004    0.0000000000000000
     0.0000000000000000    0.0000000000000000    6.7020160000000004
PRESSURE
-0.440991 0.063896 -0.222246 -0.093253 -0.182091 -0.12619
PRIMCOORD
4 1
H       6.43367      3.57296      5.43619         0.467699      0.356790      0.267970
H       1.22776      4.05519      6.27049        -0.553536      0.038838     -0.321129
H       6.45928      3.84682      0.43254         0.057244      0.150741     -0.210890
N       0.28069      3.68671      6.28417         0.028968     -0.547392      0.263957
