  # total energy =   -19.16307637 
CRSYTAL
PRIMVEC
     6.7020160000000004    0.0000000000000000    0.0000000000000000
     0.0000000000000000    6.7020160000000004    0.0000000000000000
     0.0000000000000000    0.0000000000000000    6.7020160000000004
PRESSURE
-0.459547 -1.21182 -0.397526 -0.164547 0.539868 -0.07529
PRIMCOORD
4 1
H       6.65984      3.98403      5.69302        -0.428009     -1.098919     -0.056133
H       1.30854      3.77564      6.30408        -0.784878     -1.160456      0.695351
H       6.67794      3.98896      0.53237         0.743668     -1.592674     -0.882217
N       0.33533      3.33115      6.43454         0.468791      3.851246      0.242854
