  # total energy =   -19.27747377 
CRSYTAL
PRIMVEC
     6.7020160000000004    0.0000000000000000    0.0000000000000000
     0.0000000000000000    6.7020160000000004    0.0000000000000000
     0.0000000000000000    0.0000000000000000    6.7020160000000004
PRESSURE
0.024876 0.803008 0.585461 0.139291 -0.397019 0.403118
PRIMCOORD
4 1
H       6.50985      3.80002      5.20024         0.271777     -1.138681     -0.631153
H       0.12298      5.18074      5.61033         0.981433      1.124441     -0.145906
H       5.99908      4.35441      6.49881        -0.252839     -0.441980      1.111991
N       0.19485      4.25528      6.02167        -0.999809      0.454474     -0.336250
