  # total energy =   -19.48430324 
CRSYTAL
PRIMVEC
     6.7020160000000004    0.0000000000000000    0.0000000000000000
     0.0000000000000000    6.7020160000000004    0.0000000000000000
     0.0000000000000000    0.0000000000000000    6.7020160000000004
PRESSURE
-0.134582 -0.540907 -0.347411 -0.247707 -0.093134 0.361535
PRIMCOORD
4 1
H       0.37992      4.04443      5.16325        -0.419949      1.072873      0.788750
H       6.24039      5.46094      5.02358         0.470263     -0.341494      0.492404
H       5.94414      4.47773      6.26451        -0.144384     -0.171090      0.277296
N       0.01999      4.86557      5.73502         0.094063     -0.560203     -1.558579
