  # total energy =   -19.42903198 
CRSYTAL
PRIMVEC
     6.7020160000000004    0.0000000000000000    0.0000000000000000
     0.0000000000000000    6.7020160000000004    0.0000000000000000
     0.0000000000000000    0.0000000000000000    6.7020160000000004
PRESSURE
-0.171848 -0.662641 0.182498 -0.337454 -0.224842 -0.077921
PRIMCOORD
4 1
H       6.62606      3.68268      5.21135         0.581042      1.057763      0.140118
H       0.09270      5.35511      5.59086         0.284462     -0.508358     -0.534236
H       5.96660      4.35107      6.46939         0.217999     -0.069589      0.466823
N       0.15295      4.39061      5.95060        -1.084561     -0.479804     -0.073155
