  # total energy =   -19.33384011 
CRSYTAL
PRIMVEC
     6.7020160000000004    0.0000000000000000    0.0000000000000000
     0.0000000000000000    6.7020160000000004    0.0000000000000000
     0.0000000000000000    0.0000000000000000    6.7020160000000004
PRESSURE
-0.403003 -0.568204 -0.737645 0.325136 0.550809 -0.012106
PRIMCOORD
4 1
H       0.41854      3.88193      5.25132        -0.434249      0.103419      0.133998
H       6.64160      5.54646      5.32168        -0.156026     -1.021203      0.431599
H       6.04415      4.42417      6.55957         0.967253      0.231134     -1.489477
N       0.04525      4.64168      5.80991        -0.377024      0.686761      0.924489
