  # total energy =   -19.27823474 
CRSYTAL
PRIMVEC
     6.7020160000000004    0.0000000000000000    0.0000000000000000
     0.0000000000000000    6.7020160000000004    0.0000000000000000
     0.0000000000000000    0.0000000000000000    6.7020160000000004
PRESSURE
0.481845 0.185542 0.635078 0.136586 -0.197169 0.160773
PRIMCOORD
4 1
H       6.53666      3.49372      5.37711        -0.345544     -0.100805     -0.163294
H       1.11841      4.28270      6.11161         0.416968      0.454921      0.337604
H       6.41068      3.85841      0.33489        -0.755106      0.271626      1.365577
N       0.24222      3.82994      6.22468         0.683241     -0.625130     -1.541551
