  # total energy =   -19.30760783 
CRSYTAL
PRIMVEC
     6.7020160000000004    0.0000000000000000    0.0000000000000000
     0.0000000000000000    6.7020160000000004    0.0000000000000000
     0.0000000000000000    0.0000000000000000    6.7020160000000004
PRESSURE
-0.307411 0.034694 0.029257 0.023158 0.080497 -0.087072
PRIMCOORD
4 1
H       1.62372      1.99437      0.16894        -0.345372     -0.135731      0.409531
H       6.63947      1.57140      0.26617         0.337777      0.065402      0.224187
H       0.94926      1.35524      1.65783         0.116638      0.003171      0.398235
N       0.85319      1.59886      0.69799        -0.107919      0.067467     -1.032340
