  # total energy =   -19.17528973 
CRSYTAL
PRIMVEC
     6.7020160000000004    0.0000000000000000    0.0000000000000000
     0.0000000000000000    6.7020160000000004    0.0000000000000000
     0.0000000000000000    0.0000000000000000    6.7020160000000004
PRESSURE
-1.05258 -0.21215 -1.48741 -0.058044 0.753725 -0.383916
PRIMCOORD
4 1
H       6.56399      3.46237      5.33107         0.021377      0.356095      0.829513
H       1.09298      4.45603      6.06734        -1.336336     -0.600278      0.481793
H       6.34642      3.90840      0.38481         1.417022      0.136396     -2.241593
N       0.22534      3.89405      6.18629        -0.101781      0.108135      0.931002
