  # total energy =   -19.22766438 
CRSYTAL
PRIMVEC
     6.7020160000000004    0.0000000000000000    0.0000000000000000
     0.0000000000000000    6.7020160000000004    0.0000000000000000
     0.0000000000000000    0.0000000000000000    6.7020160000000004
PRESSURE
0.006878 -1.49344 0.451751 -0.005188 -0.120854 -0.365196
PRIMCOORD
4 1
H       0.79737      3.21211      6.44548        -0.372416     -1.313601      0.357101
H       0.37368      1.42989      6.58855         0.349217      1.807686      0.550899
H       0.57212      2.48977      1.26637        -0.299798      0.005325      1.346423
N       0.65897      2.35027      0.30121         0.323258     -0.498259     -2.254067
