  # total energy =   -19.25955524 
CRSYTAL
PRIMVEC
     6.7020160000000004    0.0000000000000000    0.0000000000000000
     0.0000000000000000    6.7020160000000004    0.0000000000000000
     0.0000000000000000    0.0000000000000000    6.7020160000000004
PRESSURE
0.866005 0.221566 1.00909 0.157552 -0.34714 0.244649
PRIMCOORD
4 1
H       6.50029      3.51510      5.40841        -0.321215     -0.082693     -0.494366
H       1.15024      4.17215      6.16338         1.059773      0.673767      0.129658
H       6.43096      3.83621      0.34972        -1.031456      0.351838      1.876844
N       0.25691      3.78022      6.24828         0.292302     -0.944045     -1.512357
