  # total energy =   -19.14624355 
CRSYTAL
PRIMVEC
     6.7020160000000004    0.0000000000000000    0.0000000000000000
     0.0000000000000000    6.7020160000000004    0.0000000000000000
     0.0000000000000000    0.0000000000000000    6.7020160000000004
PRESSURE
0.018144 -0.489566 0.151918 -0.763035 0.020234 0.45436
PRIMCOORD
4 1
H       0.92348      2.89099      0.19222         0.739777     -0.177321     -1.386535
H       6.56381      1.75413      0.11980        -0.021594     -0.421604     -0.144270
H       0.54511      2.35589      1.42074         0.261370     -1.750514     -0.188492
N       0.81371      1.90237      0.48392        -0.980336      2.350653      1.720020
