  # total energy =   -19.39386509 
CRSYTAL
PRIMVEC
     6.7020160000000004    0.0000000000000000    0.0000000000000000
     0.0000000000000000    6.7020160000000004    0.0000000000000000
     0.0000000000000000    0.0000000000000000    6.7020160000000004
PRESSURE
0.241294 -0.279385 0.672164 -0.21335 -0.193931 0.133996
PRIMCOORD
4 1
H       0.00509      3.36977      5.94706        -0.428537      0.109178     -0.129007
H       0.91735      2.04633      6.43686        -0.545025      0.636574      0.482937
H       0.10307      3.02151      0.88239        -0.947434     -0.167425      1.493879
N       0.51779      2.95897      0.00275         1.920114     -0.578717     -1.848021
