  # total energy =   -19.46096681 
CRSYTAL
PRIMVEC
     6.7020160000000004    0.0000000000000000    0.0000000000000000
     0.0000000000000000    6.7020160000000004    0.0000000000000000
     0.0000000000000000    0.0000000000000000    6.7020160000000004
PRESSURE
0.166974 0.073692 -0.259249 -0.176465 -0.34287 -0.016912
PRIMCOORD
4 1
H       6.60120      3.76064      5.70800         0.311648      0.271192     -0.014186
H       1.36431      3.37410      6.47886         0.356354      0.060196     -0.770743
H       0.12656      3.73714      0.66684        -0.454483     -0.139133     -0.539803
N       0.35715      3.27579      6.47398        -0.214569     -0.191605      1.324846
