  # total energy =   -19.41014198 
CRSYTAL
PRIMVEC
     6.7020160000000004    0.0000000000000000    0.0000000000000000
     0.0000000000000000    6.7020160000000004    0.0000000000000000
     0.0000000000000000    0.0000000000000000    6.7020160000000004
PRESSURE
0.230439 0.337011 0.597739 -0.301693 -0.032302 0.079884
PRIMCOORD
4 1
H       1.69333      1.21541      0.22806        -0.010502      0.011080     -0.602135
H       0.03833      1.55163      0.48073        -0.521335     -0.197234     -0.409006
H       0.97274      0.67075      1.57724        -0.377148     -0.886453      0.810636
N       0.93455      1.35700      0.86871         0.909745      1.071918      0.201635
