  # total energy =   -19.33823354 
CRSYTAL
PRIMVEC
     6.7020160000000004    0.0000000000000000    0.0000000000000000
     0.0000000000000000    6.7020160000000004    0.0000000000000000
     0.0000000000000000    0.0000000000000000    6.7020160000000004
PRESSURE
0.774052 0.998807 0.2254 -0.309998 -0.2938 -0.29604
PRIMCOORD
4 1
H       0.34539      4.17709      5.11563         0.921425     -1.343188      0.202738
H       6.25394      5.36031      4.94955        -0.714927      1.358424     -0.140459
H       5.95998      4.49573      6.22565        -1.082910     -0.690203      0.903634
N       0.00903      4.90340      5.72454         0.875743      0.674246     -0.966130
