  # total energy =   -19.31397451 
CRSYTAL
PRIMVEC
     6.7020160000000004    0.0000000000000000    0.0000000000000000
     0.0000000000000000    6.7020160000000004    0.0000000000000000
     0.0000000000000000    0.0000000000000000    6.7020160000000004
PRESSURE
-0.201417 -0.689017 -0.041758 0.070182 -0.229986 -0.467713
PRIMCOORD
4 1
H       0.92863      3.00663      6.49010        -0.388753     -0.514760      0.852786
H       0.13197      1.46269      6.61184         0.734228      1.261118      0.876050
H       0.59766      2.28885      1.36047        -0.323083      0.434290      0.895319
N       0.71455      2.19621      0.38549        -0.023009     -1.181027     -2.625054
