  # total energy =   -19.30611614 
CRSYTAL
PRIMVEC
     6.7020160000000004    0.0000000000000000    0.0000000000000000
     0.0000000000000000    6.7020160000000004    0.0000000000000000
     0.0000000000000000    0.0000000000000000    6.7020160000000004
PRESSURE
0.092149 -0.038389 -0.368949 -0.327547 -0.039709 0.005821
PRIMCOORD
4 1
H       0.87117      3.10484      6.50704        -0.111417      0.193200     -0.490674
H       0.30802      1.45184      6.60163        -0.158470      0.187986      0.091269
H       0.61460      2.43562      1.34483        -0.199603     -0.427137     -0.878850
N       0.67699      2.28127      0.33216         0.469164      0.046254      1.277793
