  # total energy =   -19.29267954 
CRSYTAL
PRIMVEC
     6.7020160000000004    0.0000000000000000    0.0000000000000000
     0.0000000000000000    6.7020160000000004    0.0000000000000000
     0.0000000000000000    0.0000000000000000    6.7020160000000004
PRESSURE
0.08167 -0.695209 0.503458 0.210061 -0.044173 -0.115327
PRIMCOORD
4 1
H       0.73263      3.24302      6.41095        -0.253842     -0.867788      0.170886
H       0.43132      1.47976      6.60058        -0.033153      0.625507     -0.125699
H       0.53162      2.52264      1.24465        -0.246445      0.141287      1.050048
N       0.64748      2.39653      0.27553         0.532568      0.099073     -1.095576
