  # total energy =   -19.25402051 
CRSYTAL
PRIMVEC
     6.7020160000000004    0.0000000000000000    0.0000000000000000
     0.0000000000000000    6.7020160000000004    0.0000000000000000
     0.0000000000000000    0.0000000000000000    6.7020160000000004
PRESSURE
-0.276562 -0.195264 0.957078 0.17513 -0.399735 0.266635
PRIMCOORD
4 1
H       6.67163      3.55732      5.83625         0.223102     -0.177082      0.009815
H       1.25268      2.49441      6.47465        -0.858705      0.657081     -0.083030
H       0.10657      3.24352      0.79683        -0.769655      0.311411      2.032743
N       0.43868      3.10718      6.60500         1.404005     -0.790428     -1.960473
