  # total energy =   -19.53278910 
CRSYTAL
PRIMVEC
     6.7020160000000004    0.0000000000000000    0.0000000000000000
     0.0000000000000000    6.7020160000000004    0.0000000000000000
     0.0000000000000000    0.0000000000000000    6.7020160000000004
PRESSURE
0.003517 0.003517 0.003517 -0.002924 -0.002924 -0.002924
PRIMCOORD
4 1
H       1.54105      0.71933      0.21991         0.000150      0.000138      0.000075
H       0.21991      1.54105      0.71933         0.000075      0.000150      0.000138
H       0.71933      0.21991      1.54105         0.000138      0.000075      0.000150
N       1.05261      1.05261      1.05261        -0.000053     -0.000053     -0.000046
