  # total energy =   -19.18678297 
CRSYTAL
PRIMVEC
     6.7020160000000004    0.0000000000000000    0.0000000000000000
     0.0000000000000000    6.7020160000000004    0.0000000000000000
     0.0000000000000000    0.0000000000000000    6.7020160000000004
PRESSURE
-0.409692 -0.124744 -1.51001 0.525907 0.057935 -0.069024
PRIMCOORD
4 1
H       1.62526      1.89189      0.12739        -0.110414     -0.289463      0.867106
H       6.64139      1.58618      0.29229         0.739039     -0.055137      0.481565
H       0.91780      1.22394      1.72589         0.359823      0.790637     -2.099711
N       0.87051      1.55852      0.72393        -0.987542     -0.446709      0.750578
