  # total energy =   -19.10922112 
CRSYTAL
PRIMVEC
     6.7020160000000004    0.0000000000000000    0.0000000000000000
     0.0000000000000000    6.7020160000000004    0.0000000000000000
     0.0000000000000000    0.0000000000000000    6.7020160000000004
PRESSURE
-0.775531 0.175454 0.401166 0.42723 0.360771 -0.49627
PRIMCOORD
4 1
H       6.65295      3.25953      6.17601         0.345067      0.239575     -0.737699
H       0.42534      1.80518      6.59611         0.926155     -0.373072     -1.167059
H       6.58825      2.66822      0.86430         1.378408      1.133853      0.085260
N       0.63066      2.79648      0.08919        -2.650953     -0.999644      1.819688
