  # total energy =   -19.31347658 
CRSYTAL
PRIMVEC
     6.7020160000000004    0.0000000000000000    0.0000000000000000
     0.0000000000000000    6.7020160000000004    0.0000000000000000
     0.0000000000000000    0.0000000000000000    6.7020160000000004
PRESSURE
-0.474853 -1.02939 -0.780944 0.236488 0.585436 0.153888
PRIMCOORD
4 1
H       0.42748      3.86656      5.25918        -0.663297      0.752420      0.346742
H       6.61435      5.56675      5.32111        -0.008050     -1.393785      0.425627
H       6.03761      4.42761      6.54895         0.998653      0.248407     -1.467085
N       0.04384      4.65271      5.80398        -0.327360      0.392856      0.696017
