  # total energy =   -19.47972510 
CRSYTAL
PRIMVEC
     6.7020160000000004    0.0000000000000000    0.0000000000000000
     0.0000000000000000    6.7020160000000004    0.0000000000000000
     0.0000000000000000    0.0000000000000000    6.7020160000000004
PRESSURE
0.124938 0.186654 0.186383 0.10017 0.114577 0.045529
PRIMCOORD
4 1
H       6.58041      3.61323      5.27002        -0.386636     -0.203344     -0.536699
H       0.55641      5.03387      5.81456        -0.123543      0.256099     -0.094660
H       6.19124      4.18469      0.09365        -0.165238      0.119536     -0.132191
N       0.18955      4.12900      6.06686         0.675415     -0.171134      0.764377
