  # total energy =   -19.26422403 
CRSYTAL
PRIMVEC
     6.7020160000000004    0.0000000000000000    0.0000000000000000
     0.0000000000000000    6.7020160000000004    0.0000000000000000
     0.0000000000000000    0.0000000000000000    6.7020160000000004
PRESSURE
-0.801841 0.166507 0.065031 0.53312 0.227371 -0.084757
PRIMCOORD
4 1
H       0.00003      3.28729      6.19580         0.775184     -0.392546     -0.068834
H       0.42366      1.77072      6.58126         0.524220     -0.604842     -1.061643
H       6.63548      2.67303      0.92281         1.280887      0.761648     -0.218727
N       0.64028      2.73690      0.11633        -2.580256      0.235943      1.349582
