  # total energy =   -19.33358779 
CRSYTAL
PRIMVEC
     6.7020160000000004    0.0000000000000000    0.0000000000000000
     0.0000000000000000    6.7020160000000004    0.0000000000000000
     0.0000000000000000    0.0000000000000000    6.7020160000000004
PRESSURE
0.204538 -0.339991 1.08189 0.184779 -0.08811 0.28945
PRIMCOORD
4 1
H       1.03393      2.79306      0.15870         0.573088     -0.643776     -0.331457
H       6.56838      1.79525      0.16614        -0.263930     -0.673085     -0.357082
H       0.60087      2.16628      1.43869        -0.053958     -0.147214      1.961952
N       0.82477      1.83504      0.52676        -0.255158      1.463703     -1.274785
