  # total energy =   -19.28948313 
CRSYTAL
PRIMVEC
     6.7020160000000004    0.0000000000000000    0.0000000000000000
     0.0000000000000000    6.7020160000000004    0.0000000000000000
     0.0000000000000000    0.0000000000000000    6.7020160000000004
PRESSURE
-0.380644 -0.96084 -0.16957 -0.168703 -0.167411 -0.236339
PRIMCOORD
4 1
H       1.46925      0.68796      0.18478         0.251321      0.897806      0.313449
H       0.11604      1.40807      0.59589         0.700297      0.340296      0.383140
H       0.71058      0.19327      1.40927         0.526813      1.540828      0.281180
N       1.04240      1.15167      1.02803        -1.477863     -2.778092     -0.977371
