  # total energy =   -19.20258402 
CRSYTAL
PRIMVEC
     6.7020160000000004    0.0000000000000000    0.0000000000000000
     0.0000000000000000    6.7020160000000004    0.0000000000000000
     0.0000000000000000    0.0000000000000000    6.7020160000000004
PRESSURE
-1.41039 -0.785717 -0.38466 -0.116036 0.105009 0.230363
PRIMCOORD
4 1
H       6.52262      3.72770      5.18358         0.816125      0.520685      0.566642
H       0.07797      5.29658      5.60061         0.765219     -1.155704      0.140615
H       5.89651      4.37270      6.49942         2.291341     -0.497013     -0.426798
N       0.18903      4.30734      5.99357        -3.872425      1.132546     -0.280113
