  # total energy = -7877.58400827 
CRSYTAL
PRIMVEC
    15.2000000000000000    0.0000000000000000    0.0000000000000000
     0.0000000000000000   15.2000000000000000    0.0000000000000000
     0.0000000000000000    0.0000000000000000    17.000000000000000
PRESSURE
8.12285 8.08283 4.71911 -0.261545 0.177478 -0.07227
PRIMCOORD
320 1
Pb       3.68098      3.93082      4.39849        -0.048128     -0.205700     -0.860340
Pb       3.70392      3.78063      0.04766         0.719307      0.053959     -0.129350
Pb       3.72884      0.10316      4.25711         0.049975      0.064427     -0.452967
Pb       3.92643     15.19107      0.07885        -0.068074      0.397983     -0.488362
Pb      15.14784      3.89838      4.29523         0.413164     -0.300088     -0.483977
Pb      15.19600      3.83442     16.83312         0.214811     -0.049390      0.303995
Pb      15.17158      0.08843      4.21247        -0.094765     -0.654559     -0.372665
Pb       0.17505      0.00057     16.86399        -0.468186     -0.191454      0.335383
Pb       3.73174      3.73862      8.47966         0.212601      0.136912      0.054705
Pb       3.78092     15.19360      8.27439        -0.060499     -0.254948      0.986759
Pb      15.06235      3.72493      8.48156         0.175632      0.271962      0.200012
Pb      15.15660      0.02733      8.60593         0.036057     -0.057355     -0.282002
Pb       3.85500      3.70431     12.69573         0.265730      0.410609      0.281038
Pb       4.00186     15.03984     12.68806        -0.743578      0.399907      0.198008
Pb       0.17558      3.59005     12.86116        -0.275957      0.546065     -0.571569
Pb       0.04583     14.96884     12.64581         0.316859     -0.040812      0.321569
Pb       3.64144      7.78590      4.37584         0.121192     -0.455883     -0.416911
Pb       3.80725      7.74994      0.16318         0.389764     -0.450564     -0.742265
Pb      15.15756      7.77747      4.26695         0.690182     -0.476432     -0.185794
Pb       0.13792      7.65473      0.02941        -0.137962      0.093970     -0.199175
Pb       3.71022      7.45815      8.52996         0.068419      0.820978      0.229682
Pb      15.06172      7.64087      8.57669         0.586738     -0.541499     -0.192961
Pb       3.76629      7.49898     12.74663         0.144279     -0.043112     -0.106267
Pb      15.14736      7.38456     12.79100         0.181154      0.383252     -0.032458
Pb       3.63134     11.65004      4.37296         0.172740     -0.934837     -0.589904
Pb       3.88510     11.46736     16.86689         0.025509     -0.798979      0.196579
Pb      14.97263     11.59462      4.39006         0.607265     -0.161309     -0.527369
Pb       0.03095     11.43706     16.81414         0.284324     -0.542669      0.385280
Pb       3.65420     11.41327      8.38251         1.139471     -0.422820     -0.110316
Pb      15.07444     11.31407      8.64974        -0.233664      0.081588     -0.127757
Pb       3.77210     11.27478     12.66447        -0.070404     -0.322000      0.274148
Pb      15.14817     11.33770     12.58689         0.238533      0.070933      0.861010
Pb       7.75028      3.87932      4.15195        -1.025445     -0.322069     -0.021379
Pb       7.66329      3.86194      0.10151        -0.475105     -0.180355     -0.001858
Pb       7.59771      0.05452      4.12368        -0.205822     -0.032718      0.066483
Pb       7.57082     15.15390      0.05616         0.010402      0.378275      0.097169
Pb       7.70709      3.78837      8.26590        -1.035681     -0.341643      1.032831
Pb       7.51932     15.17240      8.45575         0.547577      0.370573      0.494410
Pb       7.50114      3.70033     12.64435         0.090662      0.004730      0.239295
Pb       7.53515      0.00819     12.72264         0.381958      0.322659     -0.000992
Pb       7.58746      7.66796      4.28672         0.175472     -0.367214      0.185677
Pb       7.59765      7.50240      0.07789        -0.500286      0.085771      0.108709
Pb       7.59941      7.56708      8.43912        -0.253635      0.185612     -0.549794
Pb       7.57150      7.43179     12.65326        -0.486251      0.586923      0.917537
Pb       7.58144     11.46383      4.16751         0.198133     -0.158512      0.148166
Pb       7.51830     11.39780      0.13288         0.086154      0.153628     -0.735434
Pb       7.50926     11.35869      8.34280        -0.177798     -0.220413      0.112043
Pb       7.53803     11.39677     12.71640        -0.166119     -0.461184      0.282693
Pb      11.50583      3.85050      4.04881        -0.005913     -0.506049      0.200900
Pb      11.49433      3.83744     16.92585        -0.591113     -0.632763      0.165764
Pb      11.47270      0.06891      4.13762         0.211202     -0.518581      0.114341
Pb      11.35506     15.19091     16.92706         0.131149      0.176921      0.137884
Pb      11.38658      3.65689      8.39483         0.323179      0.154401     -0.091356
Pb      11.22365     15.07656      8.78191         0.102165      0.180324     -0.614783
Pb      11.41497      3.73193     12.68739        -0.573993      0.288571      0.796863
Pb      11.25246      0.05651     12.90191        -0.410264     -0.790047     -0.025458
Pb      11.46777      7.58927      4.12499         0.041291      0.479975      0.576945
Pb      11.44723      7.66928     16.97674         0.120182     -0.414922     -0.299262
Pb      11.39745      7.62338      8.49102        -0.144248     -0.319521     -0.307227
Pb      11.31443      7.47407     12.74857        -0.299051      0.426718     -0.291539
Pb      11.43065     11.60183      4.17121         0.008612     -0.529809      0.081812
Pb      11.43451     11.18778     16.97616        -0.118235      0.468361     -0.634728
Pb      11.13237     11.42993      8.59531         0.333588     -0.428313      0.374900
Pb      11.24919     11.06866     12.94673         0.397537      0.821291     -0.523051
Ti       1.84608      1.85685      2.18103         0.285913      1.171836      0.655001
Ti       1.97227      1.83601     14.89894         1.525967      0.471296      0.870747
Ti       1.94161     13.26156      2.07967        -1.142873     -0.018695      1.734367
Ti       1.96582     13.26561     14.94415         0.089089     -0.036114     -0.881315
Ti      13.34552      1.82266      2.02410        -0.671156      0.423876      1.327563
Ti      13.36306      1.74978     14.95532        -1.020287      0.799820      1.412157
Ti      13.33768     13.26604      2.06602         0.416568      0.905457     -0.279509
Ti      13.33753     13.18178     14.96189        -0.380628      0.041169     -0.300740
Ti       1.83086      1.90330      6.50893         0.648936     -0.190868      0.398554
Ti       1.79315     13.26837      6.49110         0.384128      0.720340      1.821583
Ti      13.31181      1.78660      6.41341        -0.630947      0.515652      0.462260
Ti      13.23312     13.24328      6.81381         0.430347      0.371112     -1.727501
Ti       1.99881      1.76086     10.80582        -0.651495      0.382930     -0.663266
Ti       1.94984     13.17170     10.60521        -0.446370      0.477471      1.233044
Ti      13.30409      1.79799     10.98190         1.026003      0.507744     -1.107521
Ti      13.20658     13.25342     10.84802        -0.716016     -1.638222     -0.455455
Ti       1.87371      5.66020      2.19786         0.090158     -0.257734      1.611806
Ti       1.86671      5.70448     14.99556         1.597349      0.084310     -0.049035
Ti      13.40863      5.74525      2.13059        -0.632535     -0.372068      0.159875
Ti      13.19912      5.69186     14.92829         1.213435      0.460704      0.925939
Ti       1.78738      5.72500      6.59383         0.347027      0.098088     -0.602601
Ti      13.25263      5.66194      6.41265        -0.132005     -0.048260      1.211397
Ti       1.76918      5.61021     10.77028         0.348129      0.151063     -0.505061
Ti      13.15095      5.55764     10.78015         0.825343      0.909219     -0.284245
Ti       1.93300      9.51045      2.21549        -0.151041      0.509101      0.387199
Ti       1.93849      9.47060     14.86298         0.574822     -0.349661     -0.318271
Ti      13.39956      9.54045      2.14000         0.350377      0.179104     -0.098818
Ti      13.42556      9.43622     14.88548        -1.074298      0.138811      0.333345
Ti       1.88437      9.48353      6.57718         0.121248     -0.749527     -1.133414
Ti      13.30748      9.43117      6.53518        -0.221112     -0.590652     -0.251885
Ti       1.87510      9.39572     10.74687         0.788520     -0.980051      0.118230
Ti      13.28798      9.36362     10.84416        -1.043477      0.766900      0.516463
Ti       5.61409      1.93700      2.25287         0.350677      0.557512      0.562159
Ti       5.70665      1.87386     15.02234        -0.371188      0.885071      0.246510
Ti       5.66526     13.32092      2.33633        -0.214230     -0.033085     -0.278611
Ti       5.75067     13.28783     14.92098         0.598301     -0.072722      0.921998
Ti       5.69725      1.91136      6.42187        -0.097634      0.273811      1.418620
Ti       5.74210     13.34821      6.39411        -0.945799     -0.512597     -0.060651
Ti       5.68458      1.83404     10.60398         2.114869      0.564016      0.233709
Ti       5.64569     13.22017     10.69711         0.823976     -0.143891      0.846232
Ti       5.63519      5.73546      2.44288         0.188291     -0.787870     -0.746984
Ti       5.64779      5.66978     15.15767        -0.846012      0.250562      0.120467
Ti       5.60057      5.69799      6.49721         1.125294     -0.048347     -1.332704
Ti       5.58354      5.67234     10.64851         0.354008     -0.840820     -0.047914
Ti       5.77218      9.49719      2.33352        -1.447653      0.625254      0.363140
Ti       5.70520      9.42716     14.93358        -0.122759     -0.340423      1.358702
Ti       5.72175      9.47785      6.36353         0.054956      0.258532      0.890529
Ti       5.67456      9.43767     10.62293        -0.979494     -0.067922     -0.906283
Ti       9.52988      1.87081      2.28843        -0.902234     -0.161133     -1.423196
Ti       9.40659      1.84255     15.03261         0.486774      0.032804     -0.366744
Ti       9.54144     13.33158      2.12428        -0.241409     -0.513403      0.838974
Ti       9.53706     13.24187     15.05614        -0.726527     -0.120054      0.461858
Ti       9.51845      1.84456      6.37141         0.397824      0.355451     -0.152287
Ti       9.49522     13.26267      6.48367         0.005128      0.219402     -0.969738
Ti       9.57091      1.88243     10.73732        -2.938823     -0.282622      0.664229
Ti       9.41655     13.27308     10.94551         0.139080     -0.455579     -0.275468
Ti       9.54762      5.77036      2.29063        -0.791840     -0.404994     -0.676159
Ti       9.45659      5.66361     14.94834        -0.923478     -0.801038      0.971210
Ti       9.46025      5.65175      6.37314         0.547905      1.373068     -0.146229
Ti       9.34307      5.62721     10.63397         0.488320      0.675382      0.900546
Ti       9.60230      9.52338      2.20816        -0.369014      0.218022      1.093685
Ti       9.43396      9.39970     15.04110         0.108006      0.126608      0.310023
Ti       9.51312      9.46490      6.31227        -0.334434     -0.207607      0.427776
Ti       9.34805      9.44955     10.71164         1.382514      0.098401      0.669609
O       1.99481      1.96870      0.43111        -0.775819     -0.314587     -0.678608
O       2.10215      1.81323     13.14943        -0.248312     -0.219159     -1.111536
O       1.93307     13.39238      0.30920        -0.123669     -0.744327     -0.074228
O       1.94218     13.20775     13.16799         0.052739      0.409149     -0.134862
O      13.35246      1.84877      0.29267         0.193244     -0.178869     -1.353189
O      13.23677      1.61864     13.20230        -0.018938      0.889786     -0.742524
O      13.45997     13.31309      0.29089         0.032280     -0.333507      0.129364
O      13.40200     13.05317     13.15873        -0.440551      0.934332      0.080290
O       1.76123      1.95769      4.76252         0.222920     -0.292849     -0.700038
O       1.73640     13.26344      4.78473         0.035821      0.062628     -1.807691
O      13.37516      1.84889      4.65474        -0.259201     -0.219395      0.077372
O      13.21605     13.24616      4.95109        -0.081127     -0.272503      0.514018
O       1.84297      1.73418      9.02521         0.131995      0.350766      0.041469
O       2.02435     13.24854      8.84007        -0.471919     -0.303558      0.147222
O      13.26258      1.86078      9.20897         0.133573      0.382282     -0.927382
O      13.28401     13.20231      8.99776        -0.248213      0.108578     -0.331300
O       1.84120      5.60428      0.46879        -0.178491     -0.073997     -1.386525
O       1.93543      5.81954     13.21394        -0.321702     -0.542877     -0.579694
O      13.28232      5.76424      0.35093         0.279027     -0.177637      0.169633
O      13.28632      5.67780     13.16282        -0.462505     -0.166460      0.522082
O       1.82802      5.70313      4.80084         0.440106     -0.113644     -0.406884
O      13.29136      5.69944      4.66758        -0.217561      0.072853     -1.136268
O       1.79597      5.69171      8.97240        -0.108923     -0.342941     -0.122141
O      13.26464      5.49191      8.98317        -0.154525      0.217325      0.255313
O       1.80453      9.60519      0.45073         0.556079     -0.237055     -0.642150
O       1.95632      9.43995     13.04150         0.003014     -0.318307      0.785179
O      13.42131      9.36753      0.37783        -0.335129      0.838791     -0.934100
O      13.34308      9.42017     13.13146        -0.169516      0.199686     -1.377878
O       1.92332      9.40547      4.73824        -0.441644     -0.102601     -0.010154
O      13.47899      9.38485      4.77024        -0.711294      0.451137     -0.390426
O       1.81021      9.45446      8.96645         0.063877      0.066710     -0.704524
O      13.23908      9.48795      9.07085        -0.027278     -0.653519     -1.159240
O       5.69309      1.95152      0.49714        -0.190749     -0.470054     -0.717382
O       5.61246      1.94436     13.21400         0.291460     -0.395803      0.270310
O       5.66928     13.23507      0.52345        -0.233000     -0.081289     -0.088836
O       5.83964     13.32525     13.15563        -0.790907     -0.263474      0.035834
O       5.60860      1.80311      4.69434         0.013851      0.094953     -0.448559
O       5.72827     13.44977      4.63010         0.013705     -0.049776     -0.026342
O       5.66204      1.82811      8.86335         0.077468      0.237125     -0.511284
O       5.60337     13.19228      8.98630         0.449628      0.029717     -1.680932
O       5.69644      5.76709      0.64413         0.013586     -0.103745     -0.268947
O       5.63260      5.71336     13.40213         0.144296     -0.141701     -1.196094
O       5.74237      5.59310      4.64234        -0.376677      0.372544      1.013902
O       5.65174      5.57986      8.89380         0.064785      0.339808     -0.592859
O       5.60210      9.62083      0.57311         0.060075      0.036252     -0.566066
O       5.59564      9.26054     13.23019         0.263376      0.370072     -1.585023
O       5.85076      9.46422      4.57614        -0.532280      0.138859      0.397630
O       5.69588      9.46519      8.82592         0.353621      0.270224      0.318992
O       9.38285      1.63961      0.48887         0.502581      0.775802      0.414727
O       9.43935      1.72361     13.20132         0.423533      0.543153      0.237923
O       9.41262     13.34185      0.39663         0.407370     -0.005560     -0.625775
O       9.49052     13.26204     13.27572        -0.104816     -0.192696     -0.233118
O       9.62419      1.96463      4.59240        -0.409422     -0.541220      0.049666
O       9.62444     13.15623      4.70745        -0.230629      0.504134      0.490751
O       9.57640      1.86022      8.99043         0.258424     -0.112756     -0.926305
O       9.41098     13.32134      9.16090         0.226292     -0.245894     -1.512740
O       9.46696      5.76111      0.50120         0.456621     -0.042547     -0.061359
O       9.30963      5.58391     13.21023         0.447178      0.130595     -0.402270
O       9.61678      5.66837      4.58104        -0.468659     -0.368283      0.568722
O       9.34784      5.79252      8.89208         0.335475     -0.332661     -1.028806
O       9.66511      9.38740      0.43928        -0.201219      0.184778     -0.494723
O       9.56415      9.46366     13.27319        -0.916066     -0.122471     -0.265504
O       9.36579      9.65189      4.57718         0.622645     -0.221287     -0.900561
O       9.45871      9.39554      8.93977        -0.074573      0.163092     -0.089743
O       3.70780      1.92807      2.61410         0.140398     -0.332040      0.327167
O       3.83470      1.89773     15.47252        -0.254036      0.008704     -0.311580
O       3.72970     13.41747      2.67938        -0.536463     -0.387634     -0.134474
O       3.85929     13.23267     15.24549         0.357037      0.119560      0.139262
O      15.10873      1.85607      2.48789         1.831527     -0.101480      0.250992
O       0.11982      1.93823     15.13135        -1.848397     -0.402364      0.382478
O      15.13917     13.20602      2.63196         1.129536      0.488932     -0.284551
O       0.05630     13.27265     15.16560        -0.450910      0.425504      0.668074
O       3.74090      1.85147      6.91271         0.657144      0.174815     -0.643974
O       3.79874     13.25375      6.64251         0.027361      0.321918      0.388512
O      15.19804      1.89397      6.85520        -0.765159      0.024129      0.616714
O      15.16584     13.31329      6.90397        -0.471570     -0.796357      0.620409
O       3.91793      1.87056     11.08240        -2.188239      0.008462      0.020681
O       3.78427     13.04881     11.11936        -0.261374      1.018607     -0.234768
O      15.17801      1.80548     11.24519         0.917534     -0.465053      0.150669
O      15.19455     13.21111     11.04403         0.937509      0.302543     -0.239385
O       3.72696      5.72514      2.68423         0.449504     -0.015801      0.062991
O       3.75811      5.57877     15.49779         0.402651      0.263162     -0.015039
O      15.17158      5.59430      2.68033         0.024293      0.387078     -0.582596
O       0.02739      5.83053     15.29462        -1.275954     -0.499981      0.056241
O       3.78008      5.80059      6.86415        -0.088151     -0.590542     -0.097379
O      15.16540      5.70302      6.67570        -1.150261     -0.475165      0.906644
O       3.75067      5.49008     11.04776         0.246423     -0.170092      0.037093
O      15.08256      5.76076     11.17201         0.883825     -0.399696     -0.462146
O       3.78498      9.38851      2.64087        -0.073032     -0.049270     -0.015288
O       3.79560      9.54946     15.31189        -0.066309      0.400149      0.295537
O       0.02351      9.55117      2.44896         0.240963      0.043916      1.015169
O       0.05623      9.34403     15.21293         0.903211      0.307875      0.349469
O       3.79698      9.38953      6.73894         0.457401      0.283727      0.143807
O       0.03666      9.37468      6.79585        -1.663323      0.160642      0.868652
O       3.79703      9.40624     10.93597        -0.507379      0.352723      0.501407
O      15.17034      9.15448     10.99148         0.226164      0.394103      0.279780
O       7.52607      1.81268      2.58257         1.018448      0.228534      0.436841
O       7.57874      1.71493     15.36584         0.004565      0.319930      0.024095
O       7.56099     13.32994      2.55857         0.427657     -0.217189      0.030778
O       7.61419     13.38158     15.51228        -0.306510     -0.556221     -0.794385
O       7.58126      1.86078      6.80188         0.484594      0.388155     -0.307045
O       7.65885     13.33008      6.84655        -0.636122     -0.293778      0.029008
O       7.62224      1.67303     11.03612        -0.314024      0.807483      0.074245
O       7.55303     13.20234     11.28023        -1.055321      0.355434     -0.672328
O       7.69453      5.59722      2.59719        -0.792454      0.390376      0.278677
O       7.54692      5.81185     15.47728         0.925436     -0.513327     -0.054053
O       7.53760      5.56417      6.80067         0.735320      0.299369     -0.204777
O       7.51639      5.76263     11.15128        -0.328474     -0.798289     -0.612357
O       7.64857      9.63449      2.40674         0.233993      0.365498      0.338848
O       7.56949      9.19891     15.35933         0.841346      0.952220      0.002750
O       7.60346      9.58057      6.62912        -0.905000      0.103685      0.894363
O       7.50704      9.34463     11.09092         0.528804      0.346439      0.063861
O      11.39905      1.80090      2.53866         0.713514      0.098866     -0.244786
O      11.37308      1.89968     15.43787         0.810782     -0.144771     -0.593452
O      11.45094     13.35069      2.46709        -0.117104     -0.003317      0.238467
O      11.44600     13.12939     15.46384         0.008154      0.371504     -0.558563
O      11.44448      1.87727      6.79087        -0.276297     -0.030212      0.187949
O      11.29348     13.28166      7.06435         0.666634      0.000751      0.141258
O      11.36760      1.81958     11.15707         0.630499      0.328142      0.511417
O      11.29715     13.20336     11.10953         1.834635      0.004148      0.068531
O      11.41474      5.79909      2.64345         1.412050     -0.420745     -0.692891
O      11.36019      5.60636     15.27756         0.292082     -0.098407     -0.095322
O      11.33350      5.88056      6.74208        -0.532340     -0.931009      0.376150
O      11.26205      5.44294     11.11769         0.283660      0.654875     -0.137999
O      11.54308      9.50659      2.51864        -1.723708     -0.276079      0.226466
O      11.42113      9.55426     15.18570        -0.268154      0.090626      0.844869
O      11.35823      9.22495      6.71965         0.365212      0.677801      0.277891
O      11.29484      9.51286     11.23312         0.241552     -0.373430     -0.544942
O       1.90177      3.74438      2.64442        -0.454862      0.548557      0.130795
O       1.94997      3.79488     15.08686        -0.561274     -0.501834      0.681532
O       1.84906     15.17150      2.46651        -0.384466     -0.124430      0.351437
O       1.98005     15.19211     15.39300         0.030377     -0.240374     -0.496910
O      13.37785      3.71271      2.39138        -1.072621      1.329520      0.261988
O      13.29570      3.79754     15.44378         0.386093     -0.076610     -1.163611
O      13.36518     15.16970      2.58827        -0.351393     -0.449238     -0.115280
O      13.26774     15.14572     15.29788         0.308007     -0.305967     -0.218939
O       1.96386      3.82890      6.89927        -0.343407     -0.762195      0.088406
O       1.89877     15.17782      6.83322        -0.404599      0.102376     -0.055788
O      13.29638      3.76299      6.77727        -0.226168     -0.253001      0.348196
O      13.39207     15.15954      6.90088        -0.595585      0.085739      0.321923
O       1.79516      3.66542     11.02952         0.070073      0.292252      0.656618
O       1.96888     15.06642     11.04532        -0.018006     -0.176382      0.188717
O      13.40839      3.79690     11.30393        -0.651317     -1.651696      0.100977
O      13.29674     15.08788     11.02375        -0.115979      0.447720      0.681840
O       1.77313      7.53891      2.44691         0.089640      0.765870      0.350187
O       2.10170      7.57963     15.39440        -0.581263      0.805372     -0.020658
O      13.41157      7.65897      2.40089        -0.193464     -1.442187      0.822524
O      13.22117      7.67099     15.25996        -0.246627     -2.660637      0.161108
O       1.83205      7.57457      6.97672         0.250151      0.139899      0.117916
O      13.26877      7.47705      6.90121         0.539236      1.265469      0.526505
O       2.07359      7.41498     11.04958        -0.635262      1.433148      0.028086
O      13.08575      7.47963     11.17860        -0.084920     -0.009637     -0.504273
O       1.92447     11.42267      2.61823         0.304766      0.264769     -0.249203
O       1.92225     11.38595     15.18906        -0.321268     -0.566981      0.556612
O      13.29797     11.44054      2.56584        -0.196920     -0.289935      0.072274
O      13.39636     11.28885     15.24381         0.128109      1.073928      0.640074
O       1.85851     11.32690      6.77471         0.021039      0.936055      0.487875
O      13.27353     11.24307      6.96882        -0.160766      1.180768      0.088340
O       1.87024     11.26870     11.05983        -0.286860      0.656829     -0.413088
O      13.42776     11.33017     11.01396        -0.245457     -0.702720      0.142127
O       5.70436      3.78669      2.59495        -0.130142      0.430595      0.493876
O       5.78866      3.75246     15.44069         0.141838      0.238791      0.055098
O       5.52092      0.04147      2.60996         0.572418     -0.654605      0.052641
O       5.67927     15.19432     15.30187        -0.453261     -0.868809      0.212761
O       5.62469      3.78492      6.83725        -0.252808     -0.423662     -0.163240
O       5.78846     15.18920      6.93693        -0.737224     -0.131180     -0.746181
O       5.81511      3.72529     11.04873        -0.300413      0.239002      0.053799
O       5.66114     15.13560     10.97389        -0.225407     -0.635666      0.395495
O       5.80741      7.62962      2.68458        -0.075507     -0.097128     -0.238143
O       5.56474      7.62908     15.54199        -0.115630     -0.751313      0.151659
O       5.76831      7.59493      6.80462         0.090521     -0.065352     -0.293284
O       5.55680      7.51873     10.91449         0.278649     -0.037066      0.439240
O       5.47887     11.48300      2.78178         0.842495     -0.598445     -0.424038
O       5.85457     11.35117     15.24387        -0.151552      0.514696      0.383862
O       5.67459     11.47320      6.73437         0.285737     -0.875206      0.022596
O       5.59242     11.30433     11.04797         1.060853      0.000177      0.390339
O       9.54587      3.75163      2.50799         0.269171      0.447473      0.058281
O       9.42607      3.67644     15.36488        -0.100378      1.609459      0.236646
O       9.47098     15.12928      2.60497         0.246389      0.656348      0.528091
O       9.56704     15.15904     15.33435         0.476624     -0.747842      0.071284
O       9.51609      3.75312      6.75902         0.301520      0.436875      0.171921
O       9.48617      0.07712      6.83197         0.205310     -1.817891      0.097995
O       9.34840      3.79916     10.99055         0.065638     -1.559610      0.258806
O       9.45275     15.12756     11.15383         0.715399      1.032059      0.180404
O       9.41081      7.65285      2.70600         0.691335      0.321525     -0.484705
O       9.59312      7.48517     15.31103         0.193230      0.975518      0.090297
O       9.22614      7.62058      6.57941         0.258157     -1.233024      0.467730
O       9.43652      7.52585     11.08272         0.579337      0.284858      0.108043
O       9.61833     11.46516      2.52631        -0.277393     -0.739782     -0.258707
O       9.42298     11.36665     15.50596        -0.140077     -0.812787     -0.344412
O       9.45633     11.30604      6.84122         0.645358      1.502232      0.434148
O       9.35823     11.36928     11.17258         0.098820     -1.622406     -0.100181
