  # total energy = -7865.25605497 
CRSYTAL
PRIMVEC
    15.010000000000000    0.0000000000000000    0.0000000000000000
     0.0000000000000000   15.010000000000000    0.0000000000000000
     0.0000000000000000    0.0000000000000000    16.400000000000000
PRESSURE
16.6225 16.5512 7.69611 -0.04109 0.099583 -0.185797
PRIMCOORD
320 1
Pb       3.82690      3.66720      4.23745        -0.841105      0.535201     -0.802421
Pb       3.64469      3.75928     16.36649         0.071226     -0.504135      0.629688
Pb       3.72552     14.98591      4.16257         0.017369      0.109787      0.284275
Pb       3.85394     14.94716      0.05209        -0.656169      0.154614      0.048319
Pb      14.91533      3.81604      4.15687         0.509202     -0.634715      0.199027
Pb      14.89074      3.61245      0.04352         0.575080      0.397030      0.028393
Pb      14.90617      0.03660      4.29825         0.007568     -0.065941     -0.361122
Pb       0.01856     14.92673      0.15729        -0.025902      0.201633     -0.260746
Pb       3.47446      3.76221      8.27603         0.480637     -0.476664     -0.275675
Pb       3.67469      0.11901      8.19082         0.023290     -0.361347     -0.485921
Pb      14.80786      3.80472      8.35496         0.678511     -0.105339     -1.145794
Pb      14.81936     14.98515      8.18989         0.869877     -0.162222      0.114056
Pb       3.67398      3.69170     12.37381         0.277264     -0.300075     -0.236391
Pb       3.63355     14.94589     12.37833         0.411951      0.432156     -0.303655
Pb      14.91828      3.79528     12.41250        -0.107768     -0.589590      0.158544
Pb      14.99264     14.96866     12.33082        -0.560204      0.224084      0.276393
Pb       3.86835      7.48093      4.18849         0.115765      0.240328     -0.427832
Pb       3.78195      7.53420      0.07804        -0.486216     -0.355428      0.243654
Pb       0.12534      7.51954      4.19168        -0.421870      0.169107     -0.270473
Pb      14.98055      7.46886      0.04878         0.169227     -0.611382     -0.151073
Pb       3.74467      7.51731      8.23134        -0.315967     -0.004725     -0.089231
Pb       0.04244      7.54402      8.37193        -0.346287     -0.090625     -0.330706
Pb       3.61592      7.47079     12.29418         0.796968     -0.075291      0.904892
Pb      14.89140      7.44330     12.30603        -0.496304      0.175033      0.497252
Pb       3.85833     11.07595      4.33559        -0.331220      0.446023     -0.741747
Pb       3.77644     11.14954      0.05146        -0.236560      0.336547     -0.184934
Pb       0.17190     11.11930      4.14777        -0.403513      0.582064      0.322123
Pb       0.06485     11.32172      0.13888        -0.180092     -0.129246     -0.260595
Pb       3.77058     11.27923      8.24115        -0.042161      0.331518     -0.550043
Pb       0.10013     11.27429      8.19639        -0.537677     -0.058286      0.238458
Pb       3.74242     11.24644     12.25172         0.262378     -0.267378      1.151993
Pb       0.02487     11.28269     12.31472        -0.240837      0.017188      0.000569
Pb       7.42953      3.85076      4.02052         0.135586     -0.513986      0.162309
Pb       7.47216      3.69490      0.00735        -0.468085     -0.065232      0.560005
Pb       7.51240     14.88717      4.14064         0.270654      0.037608     -0.222249
Pb       7.41797     14.91151      0.02301         0.587465      0.218134     -0.082792
Pb       7.37137      3.71219      8.23733         0.428054     -0.258921     -0.286402
Pb       7.44438      0.22517      8.21401        -0.339773     -1.139424     -0.184932
Pb       7.28588      3.80768     12.39332         0.645242     -0.107869     -0.275108
Pb       7.43645     14.92643     12.28967        -0.032893      0.406782      0.097685
Pb       7.59163      7.47272      4.10593         0.145265      0.436390     -0.071169
Pb       7.52500      7.44465     16.30825        -0.159893      0.285950      0.596717
Pb       7.54666      7.38915      8.34511         0.054201      0.411557     -1.028533
Pb       7.44419      7.62491     12.32237         0.150340     -0.430157     -0.145893
Pb       7.67107     11.10834      4.21499        -0.141289      0.327919     -0.059230
Pb       7.47568     11.25875     16.38816         0.221409     -0.186450     -0.504484
Pb       7.64625     11.31415      8.14433        -0.406322      0.440289     -0.235432
Pb       7.47650     11.34773     12.13747         0.156007     -0.803491      0.900745
Pb      11.08188      3.84364      4.15237         1.669323     -0.792609      0.686596
Pb      11.27130      3.75735      0.05365         0.315724     -0.367674     -0.250322
Pb      11.28985     14.92952      4.11530        -0.526674     -0.085120     -0.505234
Pb      11.26933     14.96276      0.07394        -0.091442     -0.337236      0.493231
Pb      11.20321      3.70952      8.34224        -0.418801      0.110968     -1.007530
Pb      11.17590      0.05025      8.24906        -0.042342     -0.409197     -0.066999
Pb      11.12721      3.71916     12.34344         0.485813      0.188699      0.337983
Pb      11.20358      0.01198     12.45142         0.202006      0.234979     -0.685438
Pb      11.43872      7.48495      4.20012        -0.580514      0.312902     -0.505021
Pb      11.24030      7.44119      0.08184         0.569314     -0.201025     -0.412066
Pb      11.24699      7.45288      8.28737         0.483780      0.130278     -0.339167
Pb      11.18129      7.43375     12.30666         0.323895     -0.021532      0.006863
Pb      11.37399     11.10204      4.12467        -0.406423      0.578446     -0.260572
Pb      11.31031     11.13603      0.00120        -0.089582      0.875034      0.334377
Pb      11.33605     11.35109      8.31358        -0.334182      0.034008     -0.400831
Pb      11.17795     11.25369     12.30124         0.122054     -0.155804     -0.181144
Ti       1.84519      1.76453      2.16238         0.058351      1.159816     -0.517762
Ti       1.79207      1.80005     14.35860         0.345836      0.978254      0.705399
Ti       1.92559     13.12351      2.17994        -0.041263     -0.400294      0.155550
Ti       1.89536     13.08780     14.42919        -0.043289      0.211142      0.183270
Ti      13.12299      1.77689      2.15171         0.002263      1.010665      0.321471
Ti      13.10005      1.82055     14.36412         0.467602      0.553641     -1.171538
Ti      13.17399     13.04802      2.22444        -1.356436     -0.074997     -1.223336
Ti      13.15606     13.13769     14.37984         0.050473     -0.583504      0.070281
Ti       1.75827      1.92146      6.08975         0.760331     -0.983990      0.545846
Ti       1.75952     13.11033      6.08534         1.409357      1.038675      0.209302
Ti      13.05789      1.88363      6.24352        -0.564205      0.124301     -0.652526
Ti      13.06412     13.05523      6.20182        -0.142606      1.047154      0.010568
Ti       1.77295      1.83492     10.32784         1.124762      0.450070     -0.660464
Ti       1.89152     13.13094     10.22405        -0.817392      0.549419      0.033536
Ti      13.06858      1.93130     10.22997        -0.212219     -2.018683      2.042317
Ti      13.12955     13.15170     10.37501        -0.149107      0.567303     -1.046478
Ti       1.92771      5.54709      2.14351         0.094492     -0.291529     -0.118865
Ti       1.83882      5.60295     14.32085        -0.739619      0.085530      1.400521
Ti      13.21030      5.53502      2.17583        -0.959372      0.585840     -1.332138
Ti      13.03358      5.55775     14.41655         1.106789      1.280084     -0.182994
Ti       1.85526      5.68443      6.14702        -0.366859     -1.619889      0.314122
Ti      13.14245      5.62976      6.16019        -0.016891     -1.390375      0.541396
Ti       1.83015      5.61182     10.30337         0.400059     -0.221266     -0.986203
Ti      13.10622      5.57130     10.31416        -1.184875      1.552742     -0.312387
Ti       1.90617      9.32191      2.19073         1.189830      0.035079     -1.106059
Ti       1.77290      9.33660     14.37483         0.788378     -0.216711      0.568388
Ti      13.25969      9.31881      2.01052        -1.046661     -0.052581      0.133359
Ti      13.08507      9.40248     14.30910         1.103801     -1.409666     -0.136853
Ti       1.91735      9.36393      6.31166        -0.660262      0.465082     -0.668519
Ti      13.18691      9.37274      6.25004         0.203944     -0.291368      0.523078
Ti       1.87837      9.35318     10.42556        -0.168266      0.470338     -1.535492
Ti      13.11247      9.41810     10.26279        -0.250739     -0.936749      0.003475
Ti       5.62090      1.82303      2.09222        -0.064587      0.567154     -0.441748
Ti       5.60967      1.81545     14.39701        -0.398556      0.561771     -0.499761
Ti       5.65435     13.10507      2.16894        -0.560797      0.217050     -0.461684
Ti       5.63507     13.06471     14.30105        -0.145766     -0.078127      0.078251
Ti       5.54574      1.92780      6.13732        -0.584062     -1.743868      0.492910
Ti       5.54745     13.12317      6.10463         0.506546      0.737998      0.755277
Ti       5.55262      1.88075     10.29139        -0.239266     -0.306147      0.261650
Ti       5.59113     13.12961     10.22679         0.859419      0.989524     -0.436136
Ti       5.67526      5.66118      2.16117        -1.152392     -0.466491     -1.513615
Ti       5.57305      5.59356     14.38382        -0.841623     -0.091775     -0.149110
Ti       5.62429      5.61627      6.29032         0.232002      0.498163     -0.455202
Ti       5.54513      5.64321     10.20968         0.577287     -0.509523      0.605876
Ti       5.73088      9.43636      2.04825        -0.267003     -1.474237      0.917605
Ti       5.56519      9.32050     14.35178         0.585924      0.634131     -0.311937
Ti       5.69334      9.37831      6.23909         0.395250      0.865601     -1.140045
Ti       5.63464      9.39060     10.20477        -0.093042     -0.201747      1.660973
Ti       9.38673      1.86048      2.04326        -0.257172     -1.318984     -0.081498
Ti       9.35276      1.82383     14.40311        -0.629057     -0.525221      0.292708
Ti       9.34641     13.01233      2.08858         2.133572      1.193838      0.750693
Ti       9.41963     13.09147     14.33523        -1.085493      0.518574      0.045993
Ti       9.32775      1.87820      6.04676         0.296493      0.018906      0.723400
Ti       9.32260     13.17178      6.16802         0.327029     -1.410084     -0.285339
Ti       9.27220      1.85805     10.34491         0.372457      0.411220     -0.374516
Ti       9.40391     13.19921     10.26958        -0.512436     -0.653671     -0.503067
Ti       9.48385      5.57100      2.05970        -1.138808      1.551162      0.071867
Ti       9.28769      5.59408     14.39642         0.670628      0.080513     -0.499279
Ti       9.38937      5.56944      6.15298        -0.418091      1.017710      0.609970
Ti       9.34162      5.57699     10.20911         0.087757     -0.373799      1.699468
Ti       9.49612      9.32801      2.02996        -0.465971     -0.287982      0.848642
Ti       9.38697      9.36616     14.30676        -0.686413      0.061329      0.890167
Ti       9.48747      9.38567      6.14995        -0.622910     -0.715384      0.309950
Ti       9.39485      9.33589     10.13249         0.237802      1.718829      0.590247
O       1.70846      1.80019      0.30771         0.355206      0.128868     -0.095465
O       1.81347      1.85034     12.53303        -0.306547      0.266236     -0.802929
O       1.92014     13.05919      0.29589        -0.376745      0.143722     -0.353347
O       1.90221     13.10862     12.59016        -0.285762      0.079019     -0.834117
O      13.13711      1.84384      0.29644         0.099264     -0.155258     -0.736342
O      13.19628      1.85940     12.44131        -0.140612      0.271720      0.965141
O      13.27631     13.21665      0.32300        -0.709733     -0.669819     -0.582169
O      13.20227     13.04654     12.50430        -0.281317      0.299322      0.149321
O       2.00393      1.83544      4.26329        -0.436767     -0.247595      0.591391
O       1.94882     13.15984      4.25944        -0.362046     -0.081804      0.247264
O      13.09322      1.83543      4.42028        -0.226208     -0.072339     -0.784628
O      13.07160     13.15565      4.36140        -0.010002     -0.338907     -0.248296
O       1.88940      1.79019      8.47619         0.038373      0.601939     -0.279631
O       1.68570     13.05058      8.45226         0.669962      0.385539     -0.529609
O      13.07767      1.80692      8.43086        -0.093679      0.365854     -0.120833
O      13.14060     13.13419      8.48250        -0.238827     -0.161155      0.002241
O       2.03234      5.67392      0.33715        -0.254140     -0.251797     -0.763833
O       1.77789      5.59704     12.52109         0.272696     -0.040149     -1.462132
O      13.07259      5.60637      0.16264        -0.252460     -0.009485      0.573478
O      12.98336      5.58188     12.49129         0.860321     -0.473986     -0.403192
O       1.65806      5.63303      4.30490         0.582953      0.239097      0.112791
O      13.23781      5.48709      4.25360        -0.512028      0.916552      0.310657
O       1.80839      5.64199      8.38558         0.246344     -0.181384      0.827391
O      13.00448      5.59571      8.42936         0.447153     -0.023125      0.216261
O       1.89966      9.44099      0.26201        -0.043057     -0.306023     -0.116473
O       1.80369      9.25546     12.51654        -0.030136      0.505008     -0.501575
O      13.18596      9.33805      0.19698         0.013342     -0.037054     -0.606692
O      13.10937      9.39380     12.48873         0.327642     -0.017039     -0.807145
O       1.87307      9.33964      4.37620         0.118040     -0.063917      0.093708
O      13.22389      9.35172      4.43869        -0.239922      0.165594     -1.250404
O       1.92983      9.46640      8.48180        -0.184970     -0.553096      0.139720
O      13.11784      9.27916      8.41225        -0.184655      0.188818      0.148940
O       5.71782      1.86497      0.23427        -0.400697     -0.405212     -0.399043
O       5.62063      1.95166     12.53432        -0.062494     -0.206300     -0.351111
O       5.62515     13.17148      0.25459         0.156640     -0.245680     -0.122407
O       5.50546     13.13713     12.43394         0.206376     -0.099150      0.433769
O       5.46224      1.87664      4.30743         0.650337      0.076338     -0.398583
O       5.58384     13.08417      4.24436        -0.200184     -0.052883     -0.158238
O       5.41714      1.82547      8.46777         0.539532      0.211838     -0.734120
O       5.73276     13.17452      8.45912        -0.200095     -0.329770     -0.693974
O       5.66148      5.50797      0.24220        -0.401376      0.594404      0.197660
O       5.49208      5.55886     12.52200         0.378865      0.106963     -0.156845
O       5.68359      5.73380      4.42269        -0.062686     -0.598097     -0.844268
O       5.57315      5.76015      8.36167         0.111135     -0.109793      0.232535
O       5.70321      9.35276      0.20852        -0.286297      0.046829     -0.375196
O       5.57016      9.36125     12.53005         0.403188     -0.191855     -0.671309
O       5.62276      9.47306      4.22794        -0.062784     -0.290630      1.482356
O       5.50730      9.40640      8.45770         0.328949     -0.213634     -1.447324
O       9.44640      1.82137      0.18153        -0.234886      0.403389      0.297501
O       9.30754      1.65908     12.56728        -0.124723      0.487318     -0.679716
O       9.43395     12.94565      0.31245        -0.288650      0.336564     -1.603393
O       9.42028     13.12981     12.45981        -0.223384      0.225939      0.231492
O       9.45434      1.96838      4.23727        -0.501091     -0.299673      0.610034
O       9.35747     13.12621      4.32062         0.351526     -0.103410     -0.024212
O       9.26370      1.99636      8.49241         0.160557     -0.422811     -0.019094
O       9.28429     13.17010      8.43445         0.091546     -0.107512     -0.809154
O       9.30428      5.61730      0.21590         0.703861     -0.124384     -0.239118
O       9.26984      5.62246     12.60017         0.500035      0.020963     -0.861908
O       9.36854      5.59043      4.31285        -0.203266     -0.136371     -0.408391
O       9.37177      5.48079      8.43258        -0.277313      0.505367     -0.879328
O       9.37421      9.38653      0.22700         0.355698      0.091912     -0.856262
O       9.46595      9.39221     12.52952        -0.566599     -0.107012     -0.860777
O       9.46422      9.33902      4.29972         0.192498      0.005244      0.235441
O       9.45783      9.33027      8.32781        -0.381425      0.117970     -0.138425
O       3.76193      1.44263      2.17449        -0.251064     -0.086818      0.202726
O       3.67505      2.08825     14.48369         0.613357      0.350345      0.594159
O       3.76578     13.56240      2.20647         0.049973     -0.388811      0.186768
O       3.74273     12.73833     14.52519         0.153408      0.626980      0.482154
O      15.00322      2.16767      2.54383        -0.622434     -0.720166     -0.996043
O      14.96926      1.59135     14.55258        -0.937875     -0.193853      0.420551
O      14.96723     12.71022      2.34968         1.369413      0.245761      0.080535
O      14.98129     13.42028     14.65932         0.029168     -0.349409     -0.295904
O       3.65225      1.66186      6.33523         0.299027      0.064827      0.303544
O       3.69595     13.14106      6.38303        -0.169707      0.415637      0.262191
O      14.92259      2.08328      6.45167         1.078668     -0.238549     -0.033915
O      14.95744     12.99557      6.28902        -0.432124     -0.297402      0.440247
O       3.71663      1.65260     10.55189        -0.702490     -0.243533      0.339023
O       3.72877     13.55113     10.26698        -0.566724     -0.551636      0.785113
O       0.01120      2.30854     10.41184        -1.884692     -0.287714      0.362061
O      14.96658     12.84768     10.38169         0.579396     -0.203162      1.069994
O       3.75805      5.93520      2.38412         0.386835     -0.318435      0.282735
O       3.68535      5.19221     14.55500         0.791380      0.355483     -0.103235
O      14.98636      5.31061      2.09976         1.205185     -0.305556      0.552434
O      15.00863      5.93563     14.60527         0.120848     -0.614512     -0.144604
O       3.73336      5.88268      6.32474         0.034898     -0.507927      0.204698
O      14.96326      5.35245      6.49176         0.351772      0.633124     -0.285769
O       3.74769      5.97667     10.43923        -0.885742      0.055487     -0.150214
O      14.95045      5.42498     10.46169         0.337447     -0.618155      0.219848
O       3.75679      8.99682      2.26980         0.473214      0.694263      0.002692
O       3.77794      9.68897     14.47521        -1.426389     -0.056884      0.726242
O       0.06230      9.71001      2.33757        -0.622664     -0.264613     -0.210012
O      14.98349      9.00556     14.54645         0.614310      0.404638      0.037147
O       3.72747      9.31732      6.44179         1.000670     -0.068821     -0.091895
O       0.03698      9.38822      6.45105        -0.328943      0.009050      0.386537
O       3.69293      8.95599     10.55028         0.908540      1.061343     -0.532302
O      14.99992      9.57310     10.40792        -0.155187      0.428113      0.421441
O       7.55819      2.25515      2.24898        -0.362867     -0.353309      0.312837
O       7.41781      1.47934     14.55400         1.386306      0.154414      0.219279
O       7.54506     12.96206      2.33842        -1.407715     -0.867330      0.096351
O       7.49462     13.40663     14.49462        -0.277530     -0.125494      0.216327
O       7.37909      1.94291      6.43726         1.379585      0.594473     -0.207929
O       7.43066     12.93073      6.20555         0.488278     -0.106129      0.551782
O       7.42537      2.34991     10.43431         0.140159     -0.708345      0.237009
O       7.53911     12.83020     10.46384        -1.412459      0.309278      0.214995
O       7.53292      5.40497      2.22643         0.157321     -0.362399      0.811396
O       7.42819      5.93300     14.44540         0.280061      0.083238      0.592980
O       7.46827      5.41602      6.40003         0.102937      0.209705      0.400116
O       7.46777      5.42813     10.47024        -0.128435     -0.214431     -0.174985
O       7.57553      9.47207      2.36013        -0.284176      0.706232     -0.332161
O       7.51612      9.07508     14.56751         0.140773     -0.127208     -0.126207
O       7.52675      9.53924      6.31325         0.182814      0.283070      0.223581
O       7.51900      9.71615     10.44087        -0.324735     -0.329408     -0.137230
O      11.25953      1.57680      2.20418         0.175018      0.244064      0.513595
O      11.22205      2.10089     14.44398         0.110456      0.248730      0.574497
O      11.29432     13.23347      2.29483        -0.710495      0.623550      0.427762
O      11.20370     12.82191     14.55245         1.773613     -0.000083      0.366324
O      11.18595      1.68767      6.44420        -1.198241     -0.089814     -0.084310
O      11.23626     13.31763      6.54206        -0.262171     -0.483755     -0.362485
O      11.18153      1.46565     10.54183         0.353515      1.066805     -0.345423
O      11.17896     13.59646     10.39913         1.248653     -0.830582      0.448211
O      11.25688      5.94788      2.30660         0.983301     -0.354764     -0.073635
O      11.24428      5.36539     14.51381        -1.760429     -0.513345      0.605499
O      11.21196      5.70598      6.37118         0.321417      0.085858     -0.005800
O      11.21184      5.79499     10.48372        -0.420311      0.780723      0.065952
O      11.37810      8.98909      2.23167        -0.425950      0.377241      0.371342
O      11.29407      9.67142     14.46018        -1.350310     -0.178324      0.806969
O      11.31037      9.22514      6.36628        -0.371342     -0.149828      0.186194
O      11.22142      9.10786     10.45927         0.587101      0.017198      0.007629
O       2.19641      3.66114      2.34793        -0.099556      0.851338     -0.042833
O       1.49006      3.72279     14.61676         0.366734      0.048905      0.019529
O       1.36784     14.96279      2.38085         0.625251     -0.527007     -0.260368
O       2.07017     15.00491     14.56893         0.391192     -1.178980      0.308306
O      12.87621      3.73006      2.28907        -0.464431     -0.459031      0.035279
O      13.31119      3.70101     14.59758         0.451531     -0.323163      0.112854
O      13.27726     14.96385      2.34913         0.839684     -0.110335      0.449535
O      12.78525      0.00783     14.48463         0.102211     -1.120242      0.501722
O       2.07012      3.73777      6.23383        -0.069054      0.444905      0.588285
O       1.59166     14.95532      6.37379         0.381218      0.938418      0.063108
O      12.89742      3.70716      6.45529        -0.013636      0.766479      0.278862
O      13.26014     14.97643      6.47670        -0.107905      0.002770     -0.211645
O       2.11670      3.79298     10.40066         0.111793     -0.119892      0.431744
O       1.47997      0.03658     10.56796         0.547383     -1.239045     -0.228666
O      12.69820      3.74275     10.42159         0.516328     -0.652221      0.138093
O      13.32318     15.00837     10.49618         0.836926      0.543474      0.124693
O       1.57335      7.48788      2.31442        -0.198128     -0.092193      0.183226
O       2.26138      7.44795     14.49846        -0.414125      0.863185      0.662136
O      13.51708      7.46723      2.21891        -0.090296     -0.006743      0.695384
O      12.94678      7.42517     14.40204        -0.805187      1.234566      0.655093
O       1.78830      7.47595      6.43551        -0.580905      0.734052      0.165162
O      13.17415      7.41060      6.28468         0.393214      1.080804      0.521487
O       1.54025      7.46660     10.44537         0.057069      0.679528      0.167041
O      13.29300      7.47258     10.40697         0.177757      0.308473      0.430309
O       2.16449     11.25750      2.44144         0.207662     -0.090220     -0.181125
O       1.54392     11.25049     14.56800        -0.153508     -0.802471     -0.031925
O      12.78616     11.15752      2.25122         0.582448      0.012937      0.192033
O      13.35787     11.23813     14.48769         0.530651      0.624272      0.714786
O       1.92339     11.26613      6.39262        -0.078045     -0.824502      0.175164
O      13.05929     11.22845      6.50065        -0.281030     -0.140868     -0.037078
O       2.16635     11.28923     10.51604        -0.364532     -0.594055      0.087584
O      12.76436     11.25196     10.46391         0.142735      0.168548     -0.072741
O       5.31220      3.67061      2.26690         0.347688      1.298749      0.751372
O       5.98191      3.71441     14.57125        -0.581910      0.272928      0.075814
O       6.03601     15.00153      2.25619        -0.390260     -0.120230      0.231158
O       5.33555     14.98302     14.55916        -0.242571     -0.919834     -0.084149
O       5.37904      3.73842      6.48357         0.007932      0.729040     -0.151411
O       5.76286     14.99444      6.36947        -0.595941     -0.116726     -0.068987
O       5.24122      3.79377     10.35518         0.266892      0.598480      0.243592
O       5.87807      0.02050     10.41244         0.370923      0.045187      0.556687
O       5.88259      7.50315      2.28918        -0.046903     -0.582351      0.037915
O       5.26579      7.46764     14.54706         0.321544     -0.460703      0.323485
O       5.79541      7.61937      6.37291        -0.213368     -2.193743      0.488322
O       6.01887      7.57069     10.43248        -0.692423     -0.819296     -0.003555
O       5.34325     11.22587      2.20654        -0.046430      0.934041      0.175253
O       5.91178     11.22144     14.52738         0.195694      0.487875      0.460640
O       5.51850     11.26588      6.54429        -0.318939     -0.137974     -0.293610
O       5.28255     11.25616     10.48258         0.109880     -0.069025     -0.092777
O       9.78448      3.75860      2.35827        -0.879342     -0.144721     -1.228658
O       9.01251      3.68749     14.59742         0.437112      0.464299     -0.301601
O       9.19106     14.98343      2.31924        -0.089564      0.483552     -0.095504
O       9.67881     14.96270     14.71219        -0.399646     -0.198998     -0.277610
O       9.42423      3.70770      6.42507         0.058974     -0.424912     -0.312894
O       9.13720     14.93737      6.25507         0.012231      2.960236      0.579694
O       9.72372      3.74424     10.55406        -0.906928     -0.160759     -0.270984
O       8.94142      0.02263     10.35213        -0.200839      0.328640      0.555921
O       9.26525      7.51218      2.33202        -0.593474     -1.173752     -0.169923
O       9.71270      7.47175     14.59212        -0.571790      0.438044      0.081441
O       9.13572      7.47107      6.35858         0.430082     -0.142966      0.240285
O       9.17081      7.53803     10.40423        -0.505845     -1.368016      0.225133
O       9.68193     11.18580      2.36392        -0.140610     -0.436133      0.152513
O       9.05646     11.28449     14.55341         0.166513     -1.204697      0.146243
O       9.47324     11.26602      6.32596         0.338803     -0.668607      0.479876
O       9.69377     11.26235     10.36361        -0.105309      0.032113      0.345503
