  # total energy = -7877.45228642 
CRSYTAL
PRIMVEC
    15.2000000000000000    0.0000000000000000    0.0000000000000000
     0.0000000000000000   15.2000000000000000    0.0000000000000000
     0.0000000000000000    0.0000000000000000    17.000000000000000
PRESSURE
8.12948 7.68719 0.737188 -0.010271 -0.202712 -0.024419
PRIMCOORD
320 1
Pb       3.93121      3.71176      4.18527        -0.524458      0.098537      0.530824
Pb       3.56760      3.64732     16.96114        -0.018533      0.362752     -0.188613
Pb       4.00681     14.93266      4.13120        -0.893670      0.511863      1.158982
Pb       3.68982     15.13540     16.97059        -0.080264      0.140966      0.160940
Pb      15.17544      3.62891      4.27254        -0.474885     -0.145739     -0.374060
Pb      15.04471      3.87966     16.95555         1.075461     -0.438241      0.747873
Pb      15.17344     14.91523      4.10034        -0.583872      0.827483      0.976657
Pb      15.10631      0.03787      0.04846         0.268828     -0.122391     -0.105053
Pb       3.49460      3.82928      8.53564         1.001295      0.034965      0.338357
Pb       3.77735      0.16611      8.19313        -0.090008     -1.000640      2.049054
Pb      15.05405      3.82837      8.33447         0.301907     -0.453098      0.873345
Pb       0.18046      0.11986      8.32804        -0.450058     -0.514616      0.406193
Pb       3.74816      3.76460     12.82757        -0.168469      0.204869     -0.713298
Pb       3.80072     15.17051     12.68509        -0.334280      0.216160     -0.269478
Pb      15.14319      3.77996     12.81798        -0.232436     -0.237536     -0.833524
Pb      15.06125     15.09996     12.60795         0.159304      0.679248     -0.037708
Pb       3.89705      7.43109      4.13870        -0.986135      0.973801      0.483260
Pb       3.67597      7.46962      0.00657        -0.076165      0.537761     -0.546389
Pb       0.00768      7.34939      4.23728         0.072881      0.645597     -0.333375
Pb      15.15465      7.55435      0.20579         0.499037      0.210246     -0.239642
Pb       3.75621      7.48812      8.58681        -0.258836      0.320672     -0.004572
Pb       0.06213      7.69589      8.48562         0.180214     -0.270588      0.471374
Pb       3.78187      7.76593     12.91093         0.331451      0.324660     -0.350309
Pb      15.17597      7.77794     12.91987        -0.048878     -0.018775     -1.275869
Pb       4.08355     11.32135      4.13453        -0.752320     -0.064421      0.622676
Pb       3.62393     11.38446     16.66429         0.544164     -0.222370      1.398771
Pb       0.06109     11.24247      4.24901        -0.281600      0.347354     -0.081921
Pb      15.05181     11.36421      0.03757         0.296882      0.263154      0.160229
Pb       3.82038     11.38536      8.36165        -0.059269     -0.185525      0.608362
Pb       0.09432     11.36475      8.42673         0.281017      0.396366      0.146075
Pb       3.90760     11.54204     12.64361        -0.332030     -0.742830     -0.052855
Pb       0.02026     11.62081     12.63503         0.040520     -0.668358     -0.107026
Pb       7.63413      3.87566      4.32529         0.243782     -0.589381      0.373410
Pb       7.59350      3.78343     16.94497         0.056464     -0.410640     -0.322916
Pb       7.58202      0.04102      4.23863        -0.142329     -0.336089      0.723786
Pb       7.49495      0.00677     16.94372         0.169984      0.101320     -0.556513
Pb       7.34008      3.78884      8.64909         0.428054      0.186665     -0.141784
Pb       7.51146      0.05532      8.59515         0.404859     -0.170811     -0.153922
Pb       7.60673      3.67397     12.68066         0.319924      0.432817     -0.357591
Pb       7.57610     15.13824     12.72314         0.213775      0.054923     -0.138919
Pb       7.37037      7.53926      4.22099         0.933576      0.513112      0.285205
Pb       7.74209      7.39423     16.99863        -0.402665      1.257404      0.139069
Pb       7.57417      7.50814      8.62888        -0.111894     -0.011202      0.229771
Pb       7.74314      7.60864     12.81145        -0.787240      0.070757     -0.514043
Pb       7.67975     11.48155      4.18906        -0.479872      0.110618      0.664860
Pb       7.46543     11.28930     16.98256         0.526525      0.184990     -0.322747
Pb       7.65055     11.23850      8.45729        -0.408512      0.810260      0.945514
Pb       7.71328     11.45751     12.82187        -0.474988     -0.602053     -0.370158
Pb      11.35597      3.78315      4.37369        -0.083068     -0.451974      0.138467
Pb      11.37746      3.94531     16.93830        -0.509954     -0.682319      0.091172
Pb      11.27272     15.18834      4.28839         0.366485     -0.086515      0.285363
Pb      11.26545      0.08122      0.03928         0.166172     -0.048574     -0.521864
Pb      11.33155      3.77197      8.48755        -0.165693     -0.345208      0.057832
Pb      11.47014     15.13362      8.67050        -0.323347      0.468309     -0.925177
Pb      11.47676      3.79125     12.62658        -0.634207     -0.007173      0.033059
Pb      11.32447      0.01754     12.72875         0.647372     -0.007757      0.397627
Pb      11.32260      7.39692      4.34523         0.137626      0.689319     -0.246247
Pb      11.42593      7.62012      0.12230        -0.318118     -0.081990     -0.563803
Pb      11.51489      7.68304      8.43004        -0.829416     -0.255960      0.432798
Pb      11.50517      7.72933     12.71247        -0.356030     -0.838002      0.295772
Pb      11.41406     11.51365      4.28804         0.313819     -0.045631     -0.008212
Pb      11.33868     11.19822      0.11842        -0.143006      0.661660     -0.195242
Pb      11.41443     11.30393      8.43527         0.018175      0.326498     -0.200777
Pb      11.49758     11.36388     12.90413        -0.048542      0.560878     -0.208625
Ti       1.92018      1.83905      2.28995        -0.967091     -0.199753     -0.713378
Ti       1.79284      1.86943     14.91763         0.063191     -0.218983     -0.389410
Ti       1.86538     13.21647      2.25961         0.130178     -0.378370     -1.195435
Ti       1.77535     13.33156     14.97706         0.349688      0.521131      0.222163
Ti      13.22211      1.90223      2.19762         0.177310     -0.542249      1.118311
Ti      13.30434      1.94212     15.04733        -1.505499     -1.197553     -1.086224
Ti      13.17911     13.28979      2.16222         0.523126     -0.433358     -0.310888
Ti      13.27129     13.37969     15.04712        -1.163779     -0.047124     -0.805472
Ti       1.90181      1.91682      6.28633        -0.506240     -0.839350      0.231126
Ti       2.00483     13.27134      6.39898        -0.660227     -0.180179     -0.313566
Ti      13.25617      1.81885      6.45938        -0.603841      0.410621     -0.451245
Ti      13.35892     13.28377      6.63928        -0.415613      0.418396     -1.894554
Ti       1.85314      1.96319     10.80064        -0.790189     -0.379120     -0.281617
Ti       1.96687     13.35729     10.59537        -0.170749     -0.570458     -1.148228
Ti      13.26981      1.90562     10.67430         0.104576      0.156048     -0.591832
Ti      13.26939     13.29770     10.60974         0.422687      0.198776     -0.057469
Ti       1.91117      5.62552      2.27784        -1.200110      0.753024     -1.361862
Ti       1.73631      5.78672     14.89416         1.910220     -0.766308      0.646960
Ti      13.25918      5.61082      2.34443        -0.057615     -0.408934      0.049247
Ti      13.29416      5.74057     15.00848        -1.175233      0.436477     -0.324658
Ti       1.84588      5.65479      6.45417         1.049494      0.598495     -0.560117
Ti      13.26167      5.71694      6.57589        -0.730221     -0.771689     -1.588987
Ti       1.84374      5.76557     10.89402        -0.388584     -0.950442     -1.234411
Ti      13.29263      5.72658     10.67966         0.295351     -0.257226     -0.154010
Ti       1.96587      9.50912      2.21275        -0.073710     -0.894582     -0.442353
Ti       1.80169      9.59022     14.91897         0.890807     -1.213858     -0.947846
Ti      13.29635      9.42284      2.24738        -0.062934      0.414774      0.027922
Ti      13.32844      9.49653     14.99978        -0.520180      0.466113      0.684749
Ti       1.98637      9.40283      6.38149         0.075188      0.522341     -0.421764
Ti      13.39216      9.49679      6.47212        -1.086418      0.028890     -0.828170
Ti       1.89112      9.55789     10.76526         0.130026      0.278433     -0.162058
Ti      13.24820      9.55616     10.68169         2.186491      0.000417     -1.403057
Ti       5.71635      1.93600      2.22510        -0.545125     -1.080111     -0.740209
Ti       5.60696      1.99426     14.88899         1.370893     -0.959880     -0.506777
Ti       5.67562     13.30556      2.02049         0.114167     -0.324549      1.232022
Ti       5.63872     13.35278     14.91702         0.587523     -0.648869      0.437546
Ti       5.73769      1.90818      6.53283        -0.532729      0.457595     -0.151458
Ti       5.78261     13.26925      6.60190         0.231992     -0.408695     -1.084908
Ti       5.67912      1.84729     10.82707        -0.442698      0.968933     -1.193382
Ti       5.79625     13.25538     10.63787        -0.157750      0.100004     -0.844311
Ti       5.68079      5.65329      2.10505        -0.107478      0.599012      0.700946
Ti       5.61519      5.72549     14.86101        -0.164496      0.621582     -0.493964
Ti       5.64550      5.73702      6.53581        -0.113259     -1.676759      0.744533
Ti       5.59512      5.72716     10.77463         1.026165     -0.378969     -0.508738
Ti       5.74028      9.51333      2.10335        -0.734367     -0.680087     -0.198039
Ti       5.70986      9.48933     15.04581        -0.018827     -0.418468     -1.017188
Ti       5.72626      9.36919      6.56838        -0.008330      2.693151     -0.862301
Ti       5.71087      9.48408     10.83833         0.002440      0.077700     -1.413309
Ti       9.41751      1.86991      2.24586         0.348780      0.683686     -0.908383
Ti       9.46875      1.90461     14.96498         0.332111     -0.237357     -0.746346
Ti       9.41702     13.34574      2.19632         0.255941     -0.749741     -0.854221
Ti       9.46019     13.27644     14.97746         0.417023      0.129715     -0.125335
Ti       9.46216      1.84626      6.63893         0.356210      0.459012     -0.707861
Ti       9.53521     13.30297      6.63214         0.134009      0.762929     -0.559140
Ti       9.53906      1.78507     10.73032        -0.766298      1.667214     -0.671306
Ti       9.62411     13.23307     10.68881        -1.552855      0.162379     -0.259717
Ti       9.40553      5.69804      2.33129         1.592274     -0.253229     -0.423522
Ti       9.40677      5.68716     14.86146         1.079253     -0.022310     -0.990707
Ti       9.44210      5.72331      6.65834        -0.488571     -1.115198     -0.283958
Ti       9.47935      5.72948     10.71654        -0.701502     -0.954599     -0.598374
Ti       9.48091      9.53549      2.39938         0.224561     -0.786806     -1.498637
Ti       9.51624      9.51731     15.10074        -0.874589     -0.752371     -0.507950
Ti       9.45690      9.47488      6.50296         0.834160      0.152114     -0.511537
Ti       9.56910      9.48753     10.74583        -1.713492      0.003483     -0.083191
O       1.97459      1.85510      0.42270        -0.234729     -0.086996      0.623152
O       1.75437      1.91676     13.11549         0.144575     -0.620763      0.987484
O       1.90115     13.16184      0.38331        -0.147469      0.271617      1.029662
O       1.76298     13.37626     13.22619         0.115840     -0.053773     -1.007334
O      13.15930      1.98519      0.41233         0.317615     -0.042262      0.489609
O      13.26532      1.86339     13.23003        -0.008185      0.153371      0.307212
O      13.26368     13.25137      0.34885        -0.085803     -0.099290      0.500349
O      13.21268     13.42397     13.17295         0.359720     -0.215275      0.892000
O       1.82724      1.93489      4.53385         0.336669      0.140261     -0.364628
O       1.94067     13.32021      4.60150        -0.401470     -0.520244     -0.027057
O      13.29382      1.82649      4.66436        -0.333392     -0.045945      0.240874
O      13.33480     13.35282      4.74713        -0.318986     -0.731066      0.435292
O       1.78778      2.07714      8.98554         0.170659     -0.305691      0.101065
O       1.93253     13.23256      8.79732         0.040381      0.426700      0.612043
O      13.11269      1.95274      8.88276         0.811722     -0.055261      0.093532
O      13.29870     13.21854      8.83068        -0.193862      0.078345      0.084269
O       1.73003      5.80573      0.43247         0.795369     -0.738589      0.360877
O       1.85040      5.79012     13.10239        -0.371162     -0.327352      0.178797
O      13.24412      5.64511      0.52619        -0.079795     -0.378686     -0.295310
O      13.37013      5.72115     13.25103        -0.053334      0.220956     -0.365449
O       1.88837      5.70046      4.62088        -0.081043     -0.050556      0.685414
O      13.23852      5.72288      4.68223         0.169238      0.174761      0.762772
O       1.84774      5.66189      8.98531        -0.024090      0.046466      0.829593
O      13.29022      5.71119      8.88862         0.124258      0.093749     -0.409915
O       1.91796      9.52633      0.38253        -0.224140      0.027851      0.106669
O       1.91714      9.66347     13.05104        -0.602453     -0.769354      1.597412
O      13.25345      9.46023      0.29851        -0.224050      0.285371      1.809057
O      13.20967      9.46198     13.20148         0.210427      0.042461     -0.289790
O       2.03146      9.42436      4.57864        -0.616943     -0.215998      1.134034
O      13.30878      9.44173      4.65985         0.289395     -0.030072      0.081271
O       1.97233      9.46273      8.95922        -0.495183      0.061551      0.217072
O      13.27055      9.61138      8.78303         0.101159     -0.694332      2.110168
O       5.63484      1.96316      0.43789         0.186263      0.077133     -0.218262
O       5.71614      1.83187     13.05694        -0.336996      0.387291      1.211069
O       5.58808     13.36055      0.30070         0.092585     -0.190590     -1.081963
O       5.86017     13.26887     13.14148        -0.508211      0.243260     -0.434182
O       5.69495      1.78349      4.74746        -0.069351      0.626956     -0.323089
O       5.74606     13.32412      4.75459        -0.044921     -0.284898     -0.194658
O       5.58595      1.84114      8.98160         0.394227      0.049360      0.505129
O       5.65723     13.32489      8.81326         0.380083     -0.168896      1.064902
O       5.66476      5.71690      0.36274         0.097020     -0.347717      0.039337
O       5.71339      5.70353     13.02114        -0.349519      0.183577      1.319855
O       5.46093      5.65343      4.72361         1.038772      0.124169     -0.121543
O       5.63262      5.74277      8.88718        -0.015700      0.025570      0.891811
O       5.69319      9.44193      0.34311        -0.021927      0.192078     -0.362526
O       5.68482      9.50113     13.21786        -0.303309     -0.090676      0.042169
O       5.81410      9.46758      4.74999        -0.242755     -0.123659      0.166035
O       5.82547      9.57953      8.99109        -0.692097     -0.419736      0.351032
O       9.41966      1.85719      0.39080        -0.252724     -0.036805      0.864861
O       9.53233      1.95889     13.14557        -0.170630     -0.159258      0.579235
O       9.54915     13.48707      0.42328        -0.419196     -0.514220     -0.223015
O       9.47158     13.16571     13.12852         0.117036      0.085151      0.709603
O       9.31958      1.75028      4.78183         0.347959      0.452403      0.315611
O       9.48505     13.32242      4.80297         0.114591     -0.291006     -0.587648
O       9.57443      1.80741      8.93790        -0.265330     -0.091588      0.051174
O       9.61732     13.30597      8.93381        -0.076448      0.159700     -0.652458
O       9.43809      5.64730      0.53611         0.144446     -0.042636     -0.182387
O       9.35030      5.65650     13.00393         0.361604      0.109329      1.990906
O       9.30590      5.55263      4.82572         0.676604      0.427527     -0.508388
O       9.38755      5.91405      8.83387         0.540884     -0.668243      1.305954
O       9.51440      9.52136      0.49216         0.366101      0.033371      0.694193
O       9.63274      9.62659     13.29472        -0.342843     -0.444994     -0.563571
O       9.26564      9.54096      4.72681         0.574176      0.069928     -0.666388
O       9.49025      9.38323      8.97590         0.217480      0.101081      0.031993
O       3.77718      1.80590      2.44126         0.385705      0.492025      0.750253
O       3.77966      2.04887     15.14245        -0.802260     -0.380971      0.371273
O       3.80036     13.24204      2.49023        -0.006715     -0.156841      0.060585
O       3.71836     13.21373     15.18404         0.039443      0.138108     -0.068614
O      15.14816      1.89733      2.56889        -0.361042     -0.154642     -0.472702
O      15.11674      1.75249     15.43527         0.801961      0.186842     -0.181523
O      15.11276     13.08776      2.54025         0.264384      0.473178     -0.110832
O      15.14199     13.37315     15.34735        -0.132352      0.634499      0.291084
O       3.73150      1.90699      6.73922         0.387115      0.543548     -0.222485
O       3.84258     13.40246      6.64712        -0.514360     -0.527677      0.525518
O      15.19773      1.88296      6.71469         0.557129      0.430970      0.244830
O       0.01099     13.29972      6.88844         0.802445      0.073607     -0.219370
O       3.70901      1.99834     11.12547         0.991103     -0.228682      0.322906
O       3.84788     13.19250     10.91684         0.073022      0.473212      0.699541
O      15.10495      1.79784     11.08492         0.466884     -0.101719      0.008613
O      15.13823     13.33743     10.91928         0.612145      0.306313      0.526152
O       3.76246      5.69987      2.52489         1.315737     -0.402459     -0.229665
O       3.72149      5.62016     15.23527        -0.051253     -0.077272      0.016446
O       0.01019      5.60541      2.58212        -1.402520     -0.005201      0.424902
O      15.14512      5.77678     15.46961        -0.155147     -0.192844     -0.410298
O       3.77001      5.74339      6.79051        -1.051484     -0.023277      0.367739
O      15.14512      5.71356      6.74460         0.551706      0.013919      0.154514
O       3.76623      5.41055     10.96666        -0.770303      0.370469      0.484725
O      15.13730      5.61570     11.05198         0.550687      0.901861      0.350854
O       3.79324      9.43470      2.49943         1.044141      0.226087      0.107441
O       3.69019      9.41628     15.25432         0.060406      0.658498     -0.031759
O       0.00735      9.41356      2.42969        -1.323999      0.258285      0.455058
O      15.17132      9.20916     15.29145         0.330835      0.778728     -0.206738
O       3.79094      9.38859      6.85162         0.071138      0.248780     -0.068340
O       0.06104      9.48786      6.77535         0.135455     -0.443473     -0.008127
O       3.75519      9.65148     11.11793         0.690779     -0.130680      0.198103
O      15.18715      9.52787     11.05863        -0.513500     -0.281782      0.132877
O       7.52720      1.87279      2.61368        -0.002958     -0.240247     -0.101617
O       7.52147      1.85905     15.29321        -0.078321     -0.075967      0.215962
O       7.53810     13.20527      2.40326        -0.216797      0.129102      0.162839
O       7.51970     13.31051     15.33618         0.757070      0.299707      0.135528
O       7.53980      1.98185      6.91699         0.034839     -0.684444      0.372673
O       7.64675     13.15452      6.78917        -0.839684      0.570210      0.574947
O       7.60911      1.75137     11.01464        -0.049592     -0.105379      0.162841
O       7.68672     13.45819     10.91992        -0.853282     -0.171796      0.400933
O       7.58461      5.69116      2.60022        -1.915975      0.088312      0.024931
O       7.58847      5.84688     15.29320        -0.498882     -0.526976     -0.199364
O       7.52621      5.74373      6.84801        -0.241667     -0.005303      0.053473
O       7.52421      5.85523     10.90937         0.748809     -0.051497      0.274830
O       7.58972      9.51551      2.47884        -0.371334     -0.316419      0.431269
O       7.58770      9.39715     15.33501        -0.006225     -0.013618      0.204389
O       7.64419      9.56886      6.92790        -1.030969     -0.554408     -0.274133
O       7.55072      9.44707     11.18622         1.679850     -0.276793      0.075146
O      11.25536      1.86609      2.65497         0.562461     -0.413490     -0.255431
O      11.33188      1.95918     15.39987        -0.201647      0.394068     -0.193257
O      11.32486     13.25002      2.56051         0.226984      0.187606      0.323241
O      11.35037     13.25221     15.26045        -0.108201     -0.571188      0.135280
O      11.35403      1.84311      6.87751         0.251611      0.048927     -0.461263
O      11.45301     13.38141      6.78020        -0.274256     -0.470057      0.478461
O      11.35966      2.01143     11.09408         0.993185     -0.161173      0.313172
O      11.42817     13.33164     10.97579         0.455363     -0.686786      0.663552
O      11.34804      5.53931      2.78428        -0.602866      0.498288     -0.473609
O      11.38605      5.61285     15.27632        -0.466019     -0.018185      0.079865
O      11.36531      5.58374      6.84673        -0.073753      0.853914     -0.088551
O      11.38936      5.61941     10.99095         0.141791      0.456860      0.257763
O      11.36025      9.36236      2.68960         0.603822      0.432897     -0.271590
O      11.35138      9.52217     15.34471         1.443869      0.450680      0.401405
O      11.40706      9.46362      6.80228        -0.484474      0.364279     -0.052747
O      11.43419      9.49714     11.10256        -0.605142      0.170770      0.015762
O       1.84025      3.76501      2.45799         0.634200     -0.583372      0.333543
O       1.74352      3.69262     15.24982        -0.219209      1.549093      0.330600
O       1.83327     15.07657      2.65196         0.114405      0.581739     -1.079117
O       1.85481      0.00832     15.42559         0.462957     -0.090178     -0.237131
O      13.13193      3.68709      2.75383         0.699628      0.659819     -0.486312
O      13.39383      3.77476     15.32735        -0.368224      1.339496      0.090704
O      13.24271     15.13312      2.51843         0.015448      0.468776     -0.334827
O      13.08522      0.06077     15.45166         0.761108     -0.864311     -0.020905
O       1.90701      3.78863      6.79244        -0.476037      0.299292     -0.353270
O       1.96084     15.17049      6.71816        -0.977364      1.367701     -0.055461
O      13.21534      3.77232      6.72021         0.477429      0.402161      0.383236
O      13.35216      0.02401      6.84619         0.029706     -0.755862      0.522267
O       1.71055      3.75105     11.28095         0.509896      0.991864     -0.238502
O       1.96365     15.17103     11.05321        -0.162495      0.399028      0.096883
O      13.35996      3.79494     10.94647        -0.383239      0.425039      0.802217
O      13.14387      0.02961     10.91207         0.144361     -0.848707      0.374127
O       1.84870      7.56448      2.46985         0.053967     -0.033040      0.470481
O       1.88798      7.55942     15.27071         0.039198      0.399452     -0.271748
O      13.21456      7.44980      2.48680         0.174986      1.521136      0.352942
O      13.19353      7.63895     15.34709        -0.265812     -1.260936      0.008362
O       1.85363      7.53166      7.03054         0.043229      0.285742     -1.191221
O      13.18563      7.59761      6.86446         0.877376     -0.100628     -0.320701
O       1.97070      7.60606     11.15944        -0.166723      0.006069     -0.212108
O      13.29826      7.66898     11.05132        -0.158627     -0.559746      0.090918
O       1.87776     11.34681      2.70193         0.192665      0.140728     -0.317837
O       1.71115     11.39484     15.19670        -0.124173      0.161068      0.447635
O      13.16645     11.31906      2.49964         0.064125     -0.336508      0.022034
O      13.54393     11.42541     15.20979        -1.004445     -0.704060      0.091343
O       1.87349     11.40131      6.69910         0.392750     -1.173947      0.066197
O      13.33367     11.34021      6.86115        -0.160960      0.540601     -0.478227
O       1.82599     11.48756     10.99111        -0.141258     -0.126499      0.386145
O      13.31128     11.40613     11.12235        -0.427207      0.106039     -0.119916
O       5.68699      3.80482      2.64445        -0.127768      0.202796     -0.458780
O       5.76713      3.87061     15.14941         0.081480     -0.744498      0.359103
O       5.65218     15.15087      2.57910         0.649512      0.265832     -0.884239
O       5.53132     15.18371     15.31045         0.151221      1.101582     -0.205693
O       5.68661      3.82578      6.94913        -0.421022     -0.201363     -0.586980
O       5.67520      0.00073      6.92899         0.801126      0.516702     -0.442808
O       5.85756      3.75159     11.06134        -0.300039      0.228358     -0.045207
O       5.65894     15.19516     11.22449        -0.294530     -1.083068     -0.567404
O       5.64609      7.61672      2.61245         0.444690     -1.259588     -0.528498
O       5.57990      7.61747     15.29020        -0.038015     -1.253305     -0.103251
O       5.65703      7.62279      6.88345         0.308165     -1.323614      0.028915
O       5.53180      7.61833     11.07580        -0.435306     -0.475906      0.074199
O       5.67015     11.35607      2.40214         0.047713      0.632545      0.247880
O       5.77895     11.40145     15.18594        -0.589856     -0.044834      0.700610
O       5.57792     11.37872      6.80359         0.321039     -0.402866      0.107416
O       5.81790     11.39908     11.04411        -0.109553      1.086394      0.408280
O       9.30570      3.73083      2.56522         0.309144      0.296345      0.357547
O       9.33918      3.81187     15.26783         0.063239      0.672673      0.302298
O       9.32883     15.13078      2.64391         0.512835      1.121621     -0.076408
O       9.46707     15.18425     15.14058         0.032116     -0.036254      0.517809
O       9.43760      3.73684      6.96445         0.002604      0.793725     -0.015100
O       9.43886     15.18457      6.95835        -0.348865     -0.137176      0.123465
O       9.43936      3.77786     11.00684        -0.346425      0.843242     -0.024927
O       9.67342     15.17598     11.06272        -0.395306     -0.453234      0.263787
O       9.48924      7.59041      2.57514        -0.269674     -0.706135      0.482299
O       9.53786      7.56664     15.48502         0.256313     -0.476977     -0.617882
O       9.46378      7.60464      6.78523         0.314314      0.195653     -0.093033
O       9.51758      7.57925     11.22840         0.415626      0.843049     -0.315067
O       9.44966     11.41933      2.55001         0.477012     -0.010880      0.396438
O       9.37249     11.35072     15.39721         0.108683      1.162954      0.277400
O       9.50937     11.44460      6.95808         0.659316     -1.565768     -0.282817
O       9.48824     11.36767     10.89786        -0.003882     -0.527986      0.764783
