  # total energy = -7882.90715593 
CRSYTAL
PRIMVEC
    15.3600000000000000    0.0000000000000000    0.0000000000000000
     0.0000000000000000   15.3600000000000000    0.0000000000000000
     0.0000000000000000    0.0000000000000000    17.440000000000000
PRESSURE
3.03227 2.6733 5.3913 0.208665 0.272657 -0.008989
PRIMCOORD
320 1
Pb       3.83637      3.74507      4.32195        -0.070124      0.148676     -0.202611
Pb       3.76302      3.75462     17.40697         0.677924      0.105315      0.071890
Pb       3.77732     15.28330      4.35130        -0.185552      0.078614     -0.148593
Pb       3.68584     15.27721     17.29692         0.812171     -0.053337      0.804279
Pb       0.05507      3.72847      4.26359        -0.099774      0.364575      0.794181
Pb       0.06629      3.84822     17.40097        -0.580385     -0.319929     -0.108176
Pb       0.03426     15.33029      4.26276         0.082267      0.161575      0.842878
Pb      15.30752     15.27404     17.38698        -0.446166      0.507923     -0.254376
Pb       3.74172      3.79365      8.75865         0.323542      0.518357     -0.628770
Pb       3.85157      0.03508      8.58703        -0.194441     -0.130038      0.067700
Pb      15.32566      3.94409      8.71223        -0.637439     -0.263856     -0.236467
Pb      15.20977      0.01365      8.72672         0.200381      0.371924      0.088421
Pb       3.77709      3.78305     12.98019         0.887848      0.412210      0.233901
Pb       3.74569      0.05008     12.91615         0.370937     -0.382821      0.263846
Pb       0.03979      3.78641     13.06190        -0.343879     -0.408086      0.229859
Pb      15.31799     15.27606     13.04104         0.214057      0.366344      0.191804
Pb       3.81584      7.65241      4.33582         0.316907     -0.361837     -0.167579
Pb       3.79721      7.54758     17.32717        -0.108854      0.506502      0.020767
Pb       0.02608      7.79985      4.29173        -0.046879     -0.448146      0.181123
Pb      15.21338      7.57753     17.38434         0.682109      0.236321      0.541272
Pb       3.78528      7.73550      8.67552         0.253571     -0.269348     -0.165262
Pb      15.35543      7.67792      8.66919        -0.356861      0.021455     -0.015529
Pb       3.81098      7.58038     12.94527         0.190745     -0.044822      0.214835
Pb      15.31537      7.56838     13.08718         0.188115      0.389838     -0.179003
Pb       3.85207     11.54169      4.31928        -0.269237     -0.033226      0.203585
Pb       3.78558     11.58486     17.34981         0.407099     -0.523873      0.093608
Pb      15.24605     11.52091      4.35330         0.651238     -0.274026     -0.211303
Pb      15.26779     11.55381     17.31146         0.066438     -0.167956      0.610875
Pb       3.87196     11.49803      8.68489        -0.177132      0.159407     -0.378567
Pb      15.26313     11.48640      8.71977         0.430432     -0.267964      0.290929
Pb       3.82360     11.43232     12.98667         0.063128      0.415865      0.234470
Pb       0.10364     11.52745     13.00723        -0.357023     -0.061466      0.344491
Pb       7.70169      3.70169      4.28998        -0.309036      0.370213      0.575392
Pb       7.54977      3.78304      0.02738         0.452839      0.415453      0.012352
Pb       7.73101     15.25380      4.37090        -0.215688      0.551072      0.658745
Pb       7.64089      0.00189     17.39961         0.076245     -0.631908      0.437575
Pb       7.64894      3.87185      8.60516         0.488816      0.176103      0.389511
Pb       7.63332      0.00718      8.67872         0.487122     -0.144147     -0.110232
Pb       7.78426      3.92506     12.98718        -0.123756     -0.285677      1.131653
Pb       7.57395      0.12772     12.95240         0.150415     -0.703540      1.075263
Pb       7.75214      7.60926      4.33250        -0.620524     -0.131235     -0.175604
Pb       7.53131      7.74110     17.38473         0.672125     -0.289548      0.181450
Pb       7.71576      7.64502      8.66886         0.147493      0.141749      0.037345
Pb       7.65702      7.70815     12.98876         0.150401     -0.177112      0.325045
Pb       7.68204     11.48561      4.33483         0.020257     -0.291387      0.604955
Pb       7.63554     11.47891     17.40809        -0.434376      0.385613     -0.645992
Pb       7.62962     11.57819      8.62444         0.002129     -0.212613      0.611052
Pb       7.64810     11.47457     12.93041         0.569860      0.452188      0.519654
Pb      11.41720      3.78992      4.22668         0.784599     -0.095653      0.843665
Pb      11.62177      3.81061      0.01388        -0.606602      0.015478      0.256405
Pb      11.53279     15.21315      4.35456         0.116229      0.572344      0.223389
Pb      11.37107     15.28198      0.07924         0.569507      0.328868     -0.241927
Pb      11.36334      3.88610      8.63266         1.403810     -0.412317      1.071127
Pb      11.48439      0.03945      8.67140         0.075487      0.033973      0.381147
Pb      11.59625      3.74703     13.09814        -0.417974     -0.251051      0.418083
Pb      11.57461     15.34936     12.96872        -0.641003      0.206136      1.021565
Pb      11.45317      7.63646      4.23564         0.955271      0.155023      0.788497
Pb      11.52055      7.66806     17.42160        -0.510313      0.244067      0.227740
Pb      11.52360      7.70220      8.64923         0.163964      0.188407      0.364917
Pb      11.46661      7.59489     13.10297        -0.125913      0.183766      0.007818
Pb      11.54386     11.49541      4.22434        -0.060285     -0.004287      0.346861
Pb      11.38787     11.45434     17.38996         0.208931      0.073279     -0.004426
Pb      11.58955     11.51000      8.56922        -0.363409     -0.124849      1.351411
Pb      11.57386     11.48695     13.02796        -0.819584      0.212897      0.542402
Ti       1.99837      1.83876      2.28388        -0.221063     -0.063327      2.958048
Ti       1.92684      1.91188     15.37964        -0.632055     -0.548178      1.845659
Ti       1.85422     13.34751      2.31396         1.329656      0.455235      0.843565
Ti       1.83079     13.39936     15.39650        -0.051196      0.117087     -1.134653
Ti      13.53383      1.91645      2.39468        -0.403804     -0.138685      0.408316
Ti      13.44517      1.90627     15.52263        -0.108102     -0.836372     -0.805933
Ti      13.49045     13.49826      2.31057        -0.723919     -0.839149      0.734139
Ti      13.32619     13.38214     15.43961         0.988821      1.205186      0.723609
Ti       1.88447      1.90688      6.72157        -0.231246      0.458870      0.097938
Ti       1.85158     13.44601      6.74570         0.425162     -0.524476      0.316181
Ti      13.42408      1.97452      6.68959         1.012754     -0.222402     -0.310380
Ti      13.44189     13.48495      6.74033        -0.107820      0.486643      1.311739
Ti       1.93899      1.98373     10.98238        -0.630400     -1.391793      0.937704
Ti       1.90476     13.43401     10.96920         0.238665      0.209536      0.946206
Ti      13.43178      1.90597     11.10273         0.467068     -0.402020     -1.461309
Ti      13.42841     13.40830     11.16645        -0.110370     -0.060377     -0.052516
Ti       1.87768      5.74109      2.33413         0.405174     -0.390161      2.387713
Ti       1.85740      5.74399     15.38293         0.589100      0.076800      0.791164
Ti      13.41707      5.73420      2.42084         0.201596      0.119779      0.475924
Ti      13.33207      5.73178     15.40909         1.175980     -0.545267      0.254775
Ti       1.91919      5.77937      6.71794        -0.428514     -0.084561      1.280483
Ti      13.37568      5.77506      6.61367         1.714793     -0.133606      0.570728
Ti       1.86308      5.74285     11.01004         0.594201      0.304296      1.640059
Ti      13.47067      5.66533     11.20061        -0.017544      0.554090     -1.594755
Ti       1.96480      9.62627      2.25028        -0.052922     -0.331559      0.717878
Ti       1.78359      9.58376     15.43640         1.221480     -0.447081      1.500482
Ti      13.43410      9.60289      2.28821         0.722437     -0.054211      2.495084
Ti      13.41056      9.56343     15.35877        -0.631779      0.406649      1.125644
Ti       1.97090      9.64291      6.67616        -0.778145      0.084348      1.681922
Ti      13.48186      9.64128      6.66449         0.117284     -1.121475      0.712725
Ti       1.91632      9.59132     11.06489        -0.239772     -0.455842      0.784195
Ti      13.45660      9.52485     11.18292         0.662492      0.229799     -0.241759
Ti       5.86077      1.79268      2.48354        -0.959126      0.667162      0.259764
Ti       5.79152      1.83935     15.48582         0.207550      0.577030     -1.673128
Ti       5.76301     13.40444      2.44552        -0.718171     -0.073009     -0.761393
Ti       5.72467     13.39359     15.31499         0.942461     -0.129692      1.098178
Ti       5.77200      2.02005      6.72649         0.354347     -0.607915     -0.997782
Ti       5.71244     13.48588      6.69726         0.354172     -0.512002      1.624455
Ti       5.78630      1.96315     10.96074        -0.042813      0.263453      1.082786
Ti       5.75948     13.45403     11.02507         0.611799     -0.124477      0.857044
Ti       5.69037      5.66784      2.33942         0.126329      0.281001      1.530954
Ti       5.72826      5.69598     15.38208         0.132040     -0.001713      1.051518
Ti       5.71163      5.77473      6.66764         0.517185     -0.701666      1.195955
Ti       5.79956      5.73750     11.00896        -0.177242      0.220232      1.076432
Ti       5.75869      9.53033      2.38162         0.134796     -0.158765      1.430374
Ti       5.64093      9.52590     15.29430         0.162760      1.268693      2.133773
Ti       5.81275      9.55909      6.68887         0.125016      0.264173      1.108677
Ti       5.77428      9.62995     11.02165         0.293506     -0.559792      0.443783
Ti       9.70285      1.87678      2.40894        -0.667338     -0.700961     -0.132565
Ti       9.64070      1.91823     15.53930         0.423865      1.095549     -0.043734
Ti       9.53954     13.38793      2.42760         0.423159      0.687020      0.149763
Ti       9.63101     13.47471     15.34056        -1.078612     -0.178814     -1.111451
Ti       9.64551      1.88579      6.70162        -0.178891      0.098954     -0.804614
Ti       9.56659     13.41367      6.71351         0.656475      0.434059      0.320302
Ti       9.56256      1.90931     11.11270         1.231281     -0.018886      0.225589
Ti       9.61499     13.49155     11.07673        -0.850245     -0.328113      1.364273
Ti       9.54466      5.74565      2.32159        -0.004821     -0.452733     -1.945225
Ti       9.54727      5.77459     15.58581        -0.297948      0.026547      0.467541
Ti       9.63743      5.75363      6.70495        -0.694844      0.292277      2.711109
Ti       9.74180      5.75987     11.06772        -0.822129     -0.195689      0.298374
Ti       9.61926      9.52142      2.33147        -0.412464      0.909967      0.025206
Ti       9.53000      9.62620     15.43520        -0.083832     -0.626309      0.087940
Ti       9.59923      9.66343      6.72401         0.309533     -1.091804      1.118726
Ti       9.66619      9.62003     11.10179        -0.288504      0.127960     -0.793710
O       1.94736      1.95548      0.61990        -0.251061     -0.170485     -3.240306
O       1.85914      1.91383     13.68550         0.429115     -0.049572     -1.549912
O       1.91063     13.38003      0.60431        -0.017317      0.155679     -2.063930
O       1.78800     13.41739     13.60437         0.396544     -0.028925      0.701119
O      13.61783      1.86905      0.65597        -0.293874      0.239236     -0.459125
O      13.46603      1.93793     13.76556        -0.086458      0.018284     -1.213861
O      13.41527     13.56535      0.60541         0.093250     -0.247706     -1.310562
O      13.42385     13.42160     13.72992        -0.137080      0.136950     -1.605560
O       1.92100      1.91317      4.96339        -0.073207      0.089169     -0.069491
O       1.87676     13.45659      5.00756        -0.119414     -0.231496     -0.576745
O      13.52356      1.94700      4.93721        -0.120041     -0.065210     -0.279354
O      13.38970     13.51897      5.05122         0.115916     -0.457773     -2.121649
O       2.00100      1.96074      9.27671         0.128987      0.010000     -1.522828
O       1.95831     13.36156      9.24933         0.085467      0.270669     -0.686319
O      13.43566      1.90399      9.31672         0.126969     -0.228359      0.488546
O      13.46953     13.36151      9.44444        -0.075742      0.108490     -1.271532
O       1.93919      5.81241      0.64278        -0.066518     -0.308538     -2.257760
O       1.94212      5.80465     13.69340        -0.139643     -0.456541     -2.113893
O      13.53263      5.69199      0.68787        -0.058361      0.305096     -1.426262
O      13.37732      5.68950     13.65637         0.049850      0.406091     -0.340143
O       2.00780      5.72380      5.03516        -0.209550     -0.017765     -2.085503
O      13.32791      5.81054      4.88212         0.063915      0.050828     -0.453416
O       1.81683      5.82756      9.31437         0.263950     -0.289112     -1.371846
O      13.48645      5.71121      9.44833        -0.021956     -0.232941     -0.112721
O       1.97359      9.55046      0.52267        -0.187642      0.027820     -0.600799
O       1.79556      9.67496     13.74936         0.145512     -0.194956     -2.132199
O      13.51286      9.56703      0.63221        -0.061101      0.067487     -3.022727
O      13.43462      9.51116     13.62490        -0.069208     -0.096256     -0.510795
O       1.73521      9.76988      5.00986         0.265328     -0.553828     -2.162218
O      13.47285      9.55809      4.92144         0.147279      0.336484     -0.184818
O       1.93079      9.68657      9.37513         0.356105     -0.420893     -1.906529
O      13.51669      9.75099      9.46298        -0.308377     -0.144465     -1.136268
O       5.93047      1.90638      0.77627        -0.078543     -0.236561     -1.964341
O       5.79377      1.83313     13.70623        -0.267295      0.096250      0.537953
O       5.80021     13.36961      0.70001        -0.087480     -0.203222     -0.503057
O       5.69545     13.46071     13.60967        -0.039939     -0.060008     -1.073529
O       5.77746      1.96300      4.95214        -0.139685      0.197153     -0.017098
O       5.68338     13.47158      5.01650         0.121841      0.013983     -2.270716
O       5.82364      2.03965      9.24221        -0.107991     -0.333274     -1.326646
O       5.79673     13.39269      9.28190        -0.191013      0.159430     -0.550814
O       5.64759      5.60069      0.64364        -0.205947      0.144578     -2.153940
O       5.69830      5.80712     13.67929         0.236110     -0.172069     -1.227681
O       5.74771      5.77269      4.95880         0.144505     -0.036208     -1.642782
O       5.81021      5.80072      9.29313         0.069540     -0.278717     -0.258452
O       5.78020      9.61276      0.69327        -0.045233      0.376526     -1.692170
O       5.70384      9.60230     13.60197         0.041952     -0.099315     -1.642517
O       5.92265      9.50098      4.99160        -0.139279     -0.214055     -1.428161
O       5.77330      9.61000      9.28706        -0.170060      0.124092     -0.819126
O       9.72188      1.78222      0.66654        -0.198024      0.217204     -0.389645
O       9.70936      2.04352     13.80354        -0.281347     -0.258233     -0.483498
O       9.61308     13.51542      0.71281         0.000692     -0.270794     -1.268419
O       9.67336     13.47949     13.57366        -0.107511     -0.099631      0.916864
O       9.62420      2.01914      4.94750         0.200139     -0.271311     -0.436411
O       9.59240     13.45530      4.96212         0.084910     -0.251031     -0.597555
O       9.74373      1.83684      9.40421        -0.625247      0.031854     -1.512377
O       9.50530     13.66907      9.38156         0.160481     -0.100722     -1.774039
O       9.64806      5.82823      0.54826         0.009007     -0.057395      0.962021
O       9.57292      5.73351     13.85672         0.328680      0.067850     -1.474620
O       9.48733      5.73353      5.05264         0.353038     -0.014012     -3.535061
O       9.69022      5.76846      9.32489         0.093026      0.123144     -0.234915
O       9.61602      9.56447      0.59767        -0.095203      0.228169     -0.539756
O       9.56806      9.52745     13.70604         0.161211      0.161287     -1.105245
O       9.66803      9.75241      5.02102        -0.219374     -0.435717     -1.714282
O       9.68270      9.40449      9.36351        -0.042148      0.495828      0.087441
O       3.82432      1.87030      2.66420         0.346562      0.018475      0.639152
O       3.88295      1.85046     15.90023        -0.651185     -0.158397     -0.226986
O       3.79911     13.35128      2.78381         0.140468     -0.085501      0.286380
O       3.80701     13.44728     15.81244        -0.227396     -0.042681     -0.208900
O       0.03379      1.87855      2.81221         0.104648     -0.164736     -0.232369
O      15.30582      1.95203     15.83651         2.203382      0.109045      0.407019
O       0.01012     13.40447      2.66807        -1.102305     -0.184847      0.498562
O      15.24509     13.51205     15.78059         1.003772     -0.549439      0.484850
O       3.87692      2.05052      7.03254        -0.600496     -0.120031      0.638335
O       3.86979     13.39320      7.08653        -0.627025      0.055940      0.482941
O       0.03587      1.83963      7.18743        -0.119299      0.326786     -0.120113
O      15.32607     13.45626      7.19431         0.176047      0.011569     -0.143403
O       3.88276      1.86487     11.37059        -0.354419      0.410032      0.310380
O       3.87459     13.37792     11.46079        -0.688919      0.345391     -0.234419
O       0.08115      1.95994     11.36726        -0.703660     -0.268241      0.513403
O       0.02349     13.46393     11.46126        -0.042951     -0.122691     -0.007172
O       3.80680      5.74702      2.84857        -0.272722     -0.803289     -0.163067
O       3.80116      5.67459     15.71528         0.603333      0.413489      0.816689
O      15.29055      5.66273      2.81231         1.338929      0.840834     -0.166921
O      15.30935      5.79632     15.71169         0.089400     -0.513037      0.602785
O       3.85841      5.74818      7.04149        -0.435301     -0.118073      0.781109
O      15.35412      5.83899      7.06105        -0.688679     -0.337065      0.228785
O       3.88719      5.76118     11.43137        -0.518911     -0.365749     -0.057647
O      15.33376      5.73192     11.55838         1.222777     -0.342158      0.232046
O       3.87979      9.67561      2.78453        -0.814695     -0.040212      0.074966
O       3.74206      9.68412     15.74035         0.407975     -0.579572      0.170695
O       0.05732      9.59794      2.77644        -0.321379     -0.211232     -0.244742
O      15.28204      9.67301     15.79289        -0.017837     -0.591053      0.347199
O       3.88127      9.59776      7.06049         0.050208     -0.090509      0.193514
O       0.03545      9.60416      7.16773        -0.914736      0.273743     -0.154257
O       3.87693      9.62863     11.43559        -0.740934     -0.118691      0.152469
O       0.02330      9.56056     11.41154         0.141158     -0.112376      0.889320
O       7.72019      1.80944      2.90469        -0.015585      0.319646     -0.223670
O       7.71855      1.88031     15.97199        -0.016395      0.397292     -0.243861
O       7.64186     13.46678      2.84107        -0.001446     -0.026111      0.129852
O       7.68199     13.38077     15.74000         0.097122      0.045749      0.174530
O       7.77741      1.92713      6.94528        -1.329718      0.205141      0.966895
O       7.73200     13.52270      7.17035        -1.127785     -0.307665     -0.192689
O       7.71077      2.05503     11.53807        -0.744201     -0.295759     -0.521887
O       7.68285     13.32885     11.46257        -0.821023      0.580146      0.043576
O       7.64358      5.82026      2.61523         0.500883      0.056784      0.591283
O       7.68202      5.80577     15.94528        -1.321638     -0.667229     -0.123714
O       7.75352      5.70605      7.12151        -0.519189      0.279674      0.211831
O       7.77494      5.69050     11.55170        -0.650454      0.427578     -0.806707
O       7.73799      9.45541      2.77575        -0.269485      0.104576      0.118546
O       7.61846      9.63243     15.78169        -0.261156      0.332848      0.287494
O       7.73967      9.63424      7.18089        -0.840148     -0.798911     -0.054563
O       7.70646      9.55688     11.42104         0.006996      0.494048      0.233433
O      11.59631      1.84344      2.81375        -0.794508      0.055426     -0.199245
O      11.61438      1.98942     15.95188        -1.805672     -0.243740      0.356019
O      11.51848     13.47803      2.78064        -0.246337     -0.338675     -0.008187
O      11.52124     13.36661     15.82174        -1.135620      0.429405      0.516442
O      11.58316      1.99329      7.05174        -1.084583     -0.671862      0.321841
O      11.55587     13.43891      7.19819        -0.925440     -0.000704     -0.285907
O      11.55315      1.80473     11.38413        -0.300700      0.370076      0.816993
O      11.46799     13.50852     11.43431         1.113098      0.091974      0.261967
O      11.52032      5.66423      2.77385        -0.945864      0.302492     -0.040434
O      11.55321      5.87898     15.90090        -0.419818     -0.134580     -0.035011
O      11.57020      5.78387      7.12201        -0.411724     -0.119582     -0.021818
O      11.62752      5.71832     11.57987        -1.867960      0.245406      0.045286
O      11.54377      9.63508      2.71949        -1.085785      0.182301      0.118054
O      11.45952      9.54159     15.85591         0.741241      0.169541     -0.021797
O      11.50593      9.59892      7.10184         0.914397      0.247054      0.124663
O      11.60245      9.65856     11.45527        -1.452137     -0.729894      0.571385
O       1.91769      3.74758      2.72123        -0.049759      0.912475     -0.019529
O       2.03138      3.77165     15.80630        -0.894117      0.258884      0.053212
O       1.85242     15.23921      2.71773         0.474162      1.100945      0.065745
O       1.86819     15.28397     15.79477         0.108004      1.066781      0.127737
O      13.44116      3.81048      2.76031        -0.097070     -0.484926      0.063561
O      13.39302      3.85047     15.82787         0.282149      1.198252      0.451517
O      13.45870     15.30648      2.87628         0.072894      0.445397     -0.411154
O      13.38939      0.03153     15.82076         0.036867     -0.969198      0.444558
O       1.81472      3.90814      7.26694         0.701026     -0.942018     -0.472964
O       1.97313     15.35288      7.04487         0.299029      0.337594      0.569327
O      13.48078      3.82009      7.09622         0.160485      1.167300     -0.021610
O      13.44328      0.02807      7.08650        -0.094128     -0.229422      0.540348
O       1.91250      3.84233     11.47724         0.446831      0.267457     -0.036871
O       1.92081      0.03121     11.38188         0.201592     -0.645976      0.104238
O      13.48296      3.73438     11.58891        -0.079799      0.523272      0.058125
O      13.44573     15.34213     11.55704         0.557844     -0.009273     -0.139842
O       2.05417      7.62430      2.76401        -0.954064      0.865904     -0.054239
O       1.92957      7.59902     15.70491        -0.241792      1.149757      0.705877
O      13.32330      7.72548      2.69968         0.527461     -0.861534      0.274511
O      13.48937      7.72537     15.94740        -0.539668     -0.648557     -0.807196
O       1.88309      7.70534      7.11683         0.617424      0.301280      0.133128
O      13.51887      7.71276      7.17729        -0.747033      0.170248     -0.459456
O       1.95286      7.57407     11.43887        -0.233668      1.140727      0.305694
O      13.48447      7.60852     11.43471        -0.229888      0.625000      0.740294
O       1.88861     11.49243      2.68529        -0.016019     -0.570439      0.340756
O       1.77046     11.55549     15.81905         0.396681     -0.144925      0.161238
O      13.41531     11.50032      2.70461         0.191210      0.842264      0.275721
O      13.40704     11.47763     15.85785        -0.293207     -0.165960     -0.082944
O       1.86895     11.51381      7.06105         0.461289      0.440341      0.621320
O      13.41320     11.52804      7.11941         0.401017     -0.259780     -0.251471
O       1.81460     11.47109     11.36407         0.693735      0.958402      0.568749
O      13.38364     11.57217     11.68205         0.803569     -0.444888     -0.605752
O       5.80375      3.76621      2.74759        -0.170173      0.268111      0.512226
O       5.76595      3.79834     15.76302         0.162660      0.068297      0.534192
O       5.58367     15.30144      2.78858         0.883685     -0.242611      0.411520
O       5.88873     15.33804     15.80081        -0.808505     -0.724617      0.308529
O       5.82065      3.87829      7.24709        -0.321053     -0.330770     -0.641408
O       5.68292      0.04237      7.04833         0.399297      0.285031      0.513255
O       5.68307      3.80052     11.46203         0.363255      0.807309     -0.022460
O       5.83649      0.07123     11.34025        -0.117369     -0.936243     -0.000669
O       5.58860      7.61502      2.62143         0.561973      0.626548      0.640664
O       5.80905      7.67889     15.83992        -1.020406     -0.266069     -0.288933
O       5.76248      7.57277      7.10715         0.323575      1.929727      0.320941
O       5.75255      7.71567     11.38439         0.194751     -0.810362      0.272840
O       5.84204     11.51094      2.97668        -0.304466     -0.464989     -0.701297
O       5.66046     11.47535     15.80288         0.388649      0.437854     -0.061008
O       5.83589     11.48920      6.99996        -0.094099      0.343236      0.451143
O       5.77745     11.51878     11.51127        -0.268233      0.048732     -0.318556
O       9.51564      3.81039      2.65330         0.318837      0.003592      0.343422
O       9.64856      3.87943     15.99138        -0.006530     -0.641715      0.152675
O       9.42781      0.00201      2.80860         1.427342     -0.419689      0.147601
O       9.65615      0.02992     15.87729         0.054382     -0.838213     -0.082644
O       9.66565      3.81114      7.17860        -0.373838      0.130115     -0.418517
O       9.54839     15.32559      7.08402         0.860049      0.600205      0.154321
O       9.71877      3.83473     11.48155        -0.053444      0.327102      0.127392
O       9.47046      0.03420     11.58097         0.408777      0.315187     -0.250692
O       9.69630      7.62630      2.73509        -0.299015      0.325998      0.202035
O       9.44972      7.72062     15.86354         0.786343      0.192181      0.298421
O       9.64953      7.67200      7.10837        -0.176604      0.081988     -0.083176
O       9.55088      7.66604     11.53738         1.021106     -0.406946      0.111821
O       9.41697     11.52025      2.71054         0.969288     -0.800854      0.068434
O       9.64566     11.58104     15.80629        -0.205528     -0.614586      0.357137
O       9.51061     11.52221      7.18042         0.715520      0.724526     -0.029561
O       9.68047     11.56551     11.38854        -0.262683     -1.115911      0.227903
