  # total energy = -7882.29182882 
CRSYTAL
PRIMVEC
    15.3600000000000000    0.0000000000000000    0.0000000000000000
     0.0000000000000000   15.3600000000000000    0.0000000000000000
     0.0000000000000000    0.0000000000000000    17.440000000000000
PRESSURE
0.374427 0.247164 -4.3217 0.16751 0.264019 0.026388
PRIMCOORD
320 1
Pb       3.74410      3.84759      4.25504         0.115639      0.389075      0.183550
Pb       3.79184      3.85361     17.34045        -0.021310     -0.293341      0.548087
Pb       3.82289      0.01971      4.23343        -0.078598      0.315708      0.554223
Pb       3.84868      0.08023      0.05022        -0.214589      0.187926     -0.422857
Pb      15.27210      3.83042      4.33102        -0.099870     -0.296048     -0.025479
Pb      15.28836      3.85443     17.41801        -0.188215     -0.211914     -0.477321
Pb      15.23311     15.26276      4.29016         0.428008      0.668605      0.534974
Pb      15.30352     15.30039      0.03559         0.461651      0.586654     -0.271604
Pb       3.83322      3.79462      8.72237         0.135290      0.257171     -0.781314
Pb       3.82474     15.28976      8.77620         0.029116      0.270107     -0.703872
Pb       0.06277      3.68398      8.67950         0.176744      0.546086      0.333566
Pb       0.05407      0.01206      8.64249         0.263035     -0.145838     -0.461809
Pb       3.68881      3.88698     13.05779         0.505375     -0.144763     -0.173820
Pb       3.83680     15.24790     13.18744         0.170211      0.403331     -0.500173
Pb      15.27814      3.82289     13.03516         0.095411     -0.104918     -0.318758
Pb       0.01951      0.03920     13.01056         0.040397      0.062526      0.030792
Pb       3.82193      7.62972      4.27369        -0.041218     -0.100537     -0.241295
Pb       3.77620      7.70708     17.41318         0.448197      0.236887      0.132809
Pb      15.29748      7.58313      4.37128         0.191198      0.028616     -0.018965
Pb      15.32460      7.72374     17.35455        -0.305066     -0.361226      0.062682
Pb       3.92216      7.56692      8.77929        -0.454641     -0.067845     -0.672068
Pb       0.03385      7.62956      8.75427        -0.364370      0.024468     -0.529063
Pb       3.77789      7.73556     13.04251        -0.015224     -0.271558      0.221304
Pb       0.04755      7.67909     12.95613        -0.096937      0.118500      0.494205
Pb       3.75995     11.47840      4.26866         0.297985     -0.363041     -0.042069
Pb       3.86689     11.44594     17.43966        -0.041522     -0.161252     -0.171341
Pb      15.32781     11.51661      4.29268        -0.081674     -0.185628      0.402883
Pb       0.00458     11.47016     17.42748        -0.333090      0.093261     -0.454950
Pb       3.72977     11.53158      8.66982         0.210748     -0.079066      0.102902
Pb      15.35764     11.43291      8.64268        -0.366994      0.434671      0.112123
Pb       3.78098     11.54726     13.07179        -0.167768      0.181129      0.248657
Pb      15.24618     11.45776     13.15059        -0.052829      0.313159     -0.553484
Pb       7.64665      3.83019      4.40472         0.286123     -0.022561     -0.031859
Pb       7.64106      3.88924     17.29943         0.927347     -0.130957      0.205930
Pb       7.66775      0.08636      4.21169        -0.011721     -0.150048      0.242647
Pb       7.74464     15.34478      0.00114         0.047753      0.039755     -0.570338
Pb       7.70703      3.66749      8.76945         0.038507      0.175667     -0.480488
Pb       7.62856     15.24438      8.64215         0.102762      0.207152      0.045528
Pb       7.59230      3.75097     13.17487         0.263070      0.041083     -0.661244
Pb       7.60547     15.24220     13.16837         0.535138      0.183447     -0.380969
Pb       7.58252      7.68577      4.31756         0.439748     -0.302541      0.072079
Pb       7.78357      7.58066     17.40757        -0.191376      0.106753     -0.003745
Pb       7.53674      7.69181      8.68427         0.258087     -0.230268     -0.024947
Pb       7.56763      7.61128     12.99644         0.330264      0.130584      0.022875
Pb       7.67626     11.51750      4.32915         0.168029      0.279443     -0.574550
Pb       7.74293     11.48793      0.05018         0.142189     -0.021665     -0.134790
Pb       7.60714     11.39744      8.70995         0.006976      0.676014     -0.177014
Pb       7.60605     11.40823     13.10961         0.068346      0.196869     -0.071622
Pb      11.46365      3.83542      4.40884         0.603845      0.246325     -0.616643
Pb      11.46748      3.81790     17.32640         0.240314      0.102762      0.137638
Pb      11.37705      0.07690      4.27906         0.779564     -0.362275     -0.232462
Pb      11.64683     15.35518     17.34099        -0.141096      0.395299      0.312474
Pb      11.53792      3.79295      8.74777        -0.214413      0.247271     -0.082309
Pb      11.48430     15.20624      8.63424         0.251737      0.231953      0.333780
Pb      11.49253      3.86128     13.06115        -0.157294     -0.090303     -0.680108
Pb      11.52644     15.31425     12.98537        -0.271679     -0.106310     -0.178081
Pb      11.44450      7.77330      4.33913        -0.032181     -0.385324     -0.432496
Pb      11.53281      7.58975     17.40545         0.033699      0.190646     -0.169982
Pb      11.41502      7.58512      8.72810         0.513956      0.173009      0.006100
Pb      11.58238      7.74010     12.86664        -0.505783     -0.001217      0.320155
Pb      11.45807     11.49913      4.45624         0.060428      0.243126     -0.569248
Pb      11.59853     11.54051      0.02224        -0.075213     -0.546506     -0.498774
Pb      11.45341     11.53172      8.75520         0.394676     -0.019377     -0.378814
Pb      11.40743     11.46279     12.99928         0.877513      0.089752      0.019883
Ti       1.93191      1.96045      2.30857        -0.744540      0.257698     -1.459253
Ti       1.96537      1.91672     15.39243        -0.923972     -1.117557      0.428129
Ti       1.99913     13.44048      2.32137        -1.094987      0.345119      0.061435
Ti       1.92480     13.41749     15.44336        -0.395533      0.676101     -0.763116
Ti      13.45439      1.90246      2.33591         0.046496      0.193204     -0.435293
Ti      13.52563      1.91035     15.34176        -0.178998      1.002656      0.212596
Ti      13.53008     13.39934      2.28323        -1.435187      0.503067     -0.258415
Ti      13.49177     13.45438     15.37449         0.099245     -0.651018     -1.459121
Ti       2.00321      1.95049      6.58943        -0.071275     -0.777023      0.907576
Ti       2.03700     13.45363      6.63015        -0.956955      0.906506     -0.837339
Ti      13.46005      2.00599      6.68923         0.250316     -0.944182     -2.039092
Ti      13.48106     13.52128      6.69261         0.216141     -0.957065     -1.498749
Ti       2.03652      1.92910     11.04333        -0.844732      0.220437     -0.333411
Ti       1.92257     13.49226     11.07307         0.047557     -0.579091     -0.913532
Ti      13.47570      1.90694     10.96066        -0.088664      0.632917      1.311752
Ti      13.51805     13.53943     11.01970        -0.967446     -1.433457     -0.317499
Ti       1.81214      5.80001      2.27845         1.659447     -0.494782      0.566233
Ti       1.92179      5.74195     15.40488        -1.298163     -0.072201     -1.733270
Ti      13.47613      5.75140      2.22507        -1.479907     -1.293390     -0.746645
Ti      13.42229      5.84095     15.30550         0.130176     -1.592704      0.471523
Ti       1.86145      5.72145      6.69607         1.309417      0.179936     -1.180932
Ti      13.46295      5.74323      6.77487        -0.112129      0.053565     -1.386133
Ti       1.90613      5.78463     11.01756         0.162862     -0.648626     -0.158557
Ti      13.47794      5.79967     11.01769        -0.935292      0.078108     -1.910249
Ti       1.81625      9.60014      2.34028         0.749552     -0.701970      0.156457
Ti       1.85014      9.57543     15.44108         0.692277     -0.221818     -1.978158
Ti      13.36676      9.57817      2.32736         0.227845     -0.283041     -1.804993
Ti      13.39800      9.58008     15.38352        -0.167596      0.512341     -0.538094
Ti       1.83462      9.59109      6.63588         0.796729     -0.559688     -0.945214
Ti      13.37893      9.60742      6.66618        -0.338135      0.263645      0.003961
Ti       1.88540      9.61944     11.02123        -0.943335      1.407687     -1.045377
Ti      13.46365      9.65772     10.98027        -0.943690      0.263647     -0.505341
Ti       5.78187      1.99008      2.31120        -0.723563     -0.332026     -1.338089
Ti       5.73128      1.97291     15.47550         0.452255     -0.679418     -0.811286
Ti       5.75652     13.50279      2.23401         1.389331     -0.591820     -0.026233
Ti       5.76163     13.40522     15.56071         0.481605      0.242379     -0.085005
Ti       5.80780      1.91255      6.68626        -0.255752     -0.359790     -0.734304
Ti       5.80470     13.41292      6.58245         0.154476      0.957992      0.761818
Ti       5.78990      1.86358     11.02790        -0.287856      0.041245     -0.541943
Ti       5.79251     13.42430     11.04344        -0.065257      0.142097     -0.534643
Ti       5.87315      5.72645      2.30913        -0.897549      0.383388     -0.446045
Ti       5.73490      5.82300     15.38132         0.591272     -0.392850     -1.230592
Ti       5.83621      5.73487      6.68564        -1.416918     -0.490680     -0.252600
Ti       5.68805      5.71067     11.07381         0.432864     -0.076312     -0.890491
Ti       5.77569      9.60179      2.35164        -0.832946     -0.331418     -0.610148
Ti       5.81441      9.55952     15.39617        -0.453842     -0.011800     -0.791821
Ti       5.66711      9.63685      6.67537        -0.657533     -0.304663     -1.085121
Ti       5.60645      9.67557     11.09584         1.195536     -0.800201     -1.134433
Ti       9.60843      1.97182      2.24067         0.304107      0.248467     -0.702246
Ti       9.68874      1.76614     15.34939        -0.162959      1.018298     -0.857248
Ti       9.65495     13.43666      2.22627        -0.143205     -0.324389     -0.151896
Ti       9.67700     13.30599     15.40304        -0.730898      0.573875     -0.524769
Ti       9.64852      1.87505      6.69028        -0.478434      0.305739     -0.533857
Ti       9.61422     13.41924      6.60332         0.053332     -0.369976      0.429078
Ti       9.62106      1.86639     11.01116         0.477444      0.277310      0.624678
Ti       9.55571     13.38045     10.99814         1.239489      1.188641     -0.718359
Ti       9.65766      5.75227      2.32754         0.046037      0.298614     -0.328406
Ti       9.59732      5.78091     15.24381        -0.041465     -0.747112     -0.354317
Ti       9.59132      5.77481      6.64423         0.221199     -1.030883     -0.583114
Ti       9.53960      5.79149     11.08763         1.010156     -0.366366      0.328473
Ti       9.55924      9.62113      2.24845         0.190497     -0.745714     -0.002363
Ti       9.60292      9.53227     15.37809         0.582933      0.350542     -0.513279
Ti       9.51635      9.59992      6.65062         1.481406      0.556900     -1.790478
Ti       9.48416      9.65667     11.02380         0.684031     -1.233566      0.938533
O       2.07355      1.96327      0.43994        -0.167098     -0.222613      1.754122
O       1.85106      1.76013     13.61916         0.446644      0.575471     -0.244169
O       1.98705     13.45931      0.56780        -0.160158     -0.229331      0.037662
O       1.85056     13.49139     13.61625         0.412287     -0.214329      0.912175
O      13.40126      1.83732      0.52692         0.339366     -0.145828      0.484797
O      13.46319      1.90287     13.53410         0.162672      0.310303      1.056537
O      13.57607     13.50554      0.45486        -0.322611     -0.374332      0.806125
O      13.50065     13.44173     13.55416         0.327712      0.086912      0.985689
O       1.97826      1.93311      4.86561         0.009423      0.151902     -1.157798
O       2.05364     13.51681      4.82621         0.062125     -0.506118      0.558234
O      13.49733      2.02003      4.77770        -0.339673     -0.171404      2.263579
O      13.46435     13.40001      4.84602         0.043047      0.056710      1.328887
O       2.05265      1.96653      9.24796        -0.158739     -0.324044      0.643916
O       2.04203     13.60444      9.25981        -0.030380     -0.318786      0.235833
O      13.47808      1.96607      9.23951         0.019784     -0.147616     -1.159759
O      13.45666     13.51189      9.23528         0.058246      0.083915     -0.491090
O       1.91211      5.79900      0.51745        -0.011969      0.059482     -0.603199
O       1.88356      5.83614     13.53393         0.047321     -0.405784      1.450337
O      13.42941      5.71905      0.36075         0.136754      0.479576      2.076510
O      13.51385      5.80762     13.51128         0.037076     -0.108139      0.187132
O       1.77118      5.71659      4.84599         0.377317      0.181567      1.209107
O      13.43170      5.53968      4.88731         0.298657      0.659515      1.731408
O       1.87501      5.66772      9.25712         0.514555      0.523722     -0.167806
O      13.49773      5.82687      9.14116        -0.194445      0.005084      1.240473
O       1.96129      9.50797      0.56444        -0.386291      0.051912     -0.924201
O       1.86485      9.64596     13.60591        -0.016254     -0.109960      0.772758
O      13.38573      9.42478      0.41084         0.244008      0.614238      2.259904
O      13.38390      9.71096     13.58594         0.246127     -0.508789      0.338671
O       1.84896      9.67266      4.78627         0.152127     -0.249827      1.360669
O      13.28494      9.74651      4.82718         0.201947     -0.574590      0.720170
O       1.89034      9.61971      9.19679         0.017091      0.209275      1.181977
O      13.50042      9.64363      9.20005         0.092589     -0.077836     -0.125270
O       5.66651      1.98028      0.48459         0.237323      0.004179      0.599998
O       5.69773      2.01870     13.68921         0.267784     -0.085588      0.042960
O       5.77189     13.49410      0.44006        -0.184425     -0.095841      0.266866
O       5.80933     13.40724     13.78044         0.029415     -0.052035      0.245388
O       5.90700      1.94678      4.88842        -0.259907     -0.158317      0.150486
O       5.76505     13.42039      4.83691         0.157384      0.011546     -0.235720
O       5.98233      1.83199      9.22005        -0.722034      0.223193      0.688881
O       5.80131     13.42906      9.27406        -0.146127      0.110481     -0.035370
O       5.89213      5.76144      0.49188        -0.186510      0.010829      0.982884
O       5.74559      5.80566     13.51197         0.002274     -0.134144      1.317801
O       5.85417      5.82065      4.89746        -0.237797     -0.280161      0.567227
O       5.66315      5.79038      9.22163         0.420219      0.061343      1.223402
O       5.71163      9.51950      0.57944         0.052644      0.054057     -0.025924
O       5.76488      9.64674     13.55124        -0.059860     -0.077845      1.034176
O       5.64064      9.55830      4.84083         0.128460      0.298572      1.361051
O       5.64073      9.58947      9.26782         0.433555      0.445738      0.466366
O       9.60588      1.98757      0.42826         0.009790     -0.431761      1.631542
O       9.73938      1.77782     13.50896        -0.293265      0.394462      1.267977
O       9.56227     13.36899      0.42305         0.623835      0.255225      0.897871
O       9.53390     13.38216     13.59132         0.060641     -0.234224      1.186305
O       9.51546      1.77291      4.87491         0.461772      0.244974      0.363784
O       9.50693     13.26150      4.82472         0.221620      0.528105     -0.012319
O       9.66137      2.06725      9.20637        -0.367482     -0.553886      0.949820
O       9.74285     13.42431      9.17076        -0.512296     -0.337869      1.259105
O       9.56988      5.72379      0.54467        -0.098582      0.375035      0.069060
O       9.46285      5.81754     13.43493         0.423746     -0.230175      1.185855
O       9.52779      5.59749      4.87314         0.625036      0.847257      0.702000
O       9.65059      5.74089      9.31934        -0.466988      0.108177     -0.542638
O       9.50783      9.62498      0.43973         0.343796     -0.465508      0.923329
O       9.64780      9.61900     13.56421        -0.338430      0.200396      1.003011
O       9.58922      9.73674      4.71048         0.250437     -0.473734      2.495187
O       9.41585      9.69764      9.26999         0.173571     -0.158137     -0.600785
O       3.83707      1.90581      2.72232        -0.060378      0.206540      0.024434
O       3.83634      1.99413     15.74150         0.340684     -0.258346      0.259193
O       3.87437     13.50483      2.62404        -0.357263     -0.242897      0.151839
O       3.82762     13.32147     15.82135         0.544753      0.122174     -0.060303
O      15.35260      2.00208      2.69075         0.406596     -0.397050     -0.310789
O       0.09931      1.91974     15.81300        -1.495130     -0.090302     -0.079816
O       0.02315     13.34927      2.69523         0.073401      0.190212     -0.057988
O       0.00894     13.38995     15.82862         0.893149     -0.145658      0.173805
O       3.91227      1.94072      6.99370        -0.291975      0.019203      0.285297
O       3.96063     13.50914      7.06582        -1.300228     -0.486548      0.006850
O       0.04462      1.97009      7.08526        -0.335620     -0.350237     -0.131729
O       0.06097     13.53703      6.96067        -0.368927     -0.014629      0.371019
O       3.87808      1.88612     11.47583        -0.354822      0.238950      0.022849
O       3.90690     13.32684     11.52030        -1.337582      0.589280      0.069862
O       0.00705      1.98385     11.43601         0.105655     -0.082446     -0.175016
O       0.01252     13.47426     11.31727         0.015714      0.703772      0.410075
O       3.88000      5.67879      2.74635        -0.385007      0.661028     -0.330791
O       3.86464      5.72357     15.61331        -0.603133      0.242410      0.529892
O      15.35866      5.68852      2.67940        -0.996568      0.077325     -0.147610
O      15.31501      5.68517     15.78821         0.697996      0.060490     -0.209113
O       3.86961      5.68855      7.10146        -0.293027      0.310833     -0.070993
O       0.06585      5.74657      7.13027        -1.055421     -0.277009     -0.050074
O       3.76553      5.76918     11.49562         0.898222      0.068209     -0.130159
O       0.05717      5.88987     11.31833        -1.161897      0.046042      0.482961
O       3.75429      9.51422      2.61789         0.613392      0.439420      0.582524
O       3.83804      9.39841     15.67456         0.274887      0.389323      0.624426
O      15.26614      9.63886      2.71261        -0.254221      0.078066     -0.067654
O      15.33277      9.62977     15.71682         0.442887     -0.587536      0.599843
O       3.81082      9.74233      7.14037         0.021732     -0.504451     -0.683593
O       0.03789      9.59944      7.05706        -0.787146      0.004935     -0.169803
O       3.75504      9.80043     11.46443        -0.079405     -0.322424     -0.039367
O      15.31272      9.53545     11.43435         0.739737      0.045422     -0.005424
O       7.61213      1.99573      2.66979         1.937212     -0.429622     -0.087141
O       7.82137      1.80919     15.66178        -0.967363      0.399712      0.295531
O       7.67659     13.39374      2.56970         0.128257      0.243470      0.191333
O       7.76629     13.42115     15.91051        -0.892029      0.269098     -0.421151
O       7.77277      1.83206      7.00427        -0.375133      0.257667      0.731799
O       7.77059     13.48546      7.12376        -1.055709     -0.710316     -0.580324
O       7.57201      1.92817     11.43095         1.719539     -0.000583      0.444687
O       7.70210     13.44458     11.36343        -0.407150     -0.507028      0.356566
O       7.72833      5.82773      2.78194        -0.802980     -0.299512     -0.324176
O       7.69615      5.77524     15.71447        -0.161690     -0.293451     -0.019349
O       7.71909      5.83495      6.97663        -0.335127     -0.008255      0.746359
O       7.63534      5.70699     11.49609        -0.524561      0.414701     -0.597348
O       7.68805      9.42589      2.70968        -0.289970      0.902247     -0.292038
O       7.73245      9.52190     15.71893        -0.695477      0.085886     -0.109468
O       7.69375      9.64959      6.99434        -1.067905     -0.038351      0.272245
O       7.59214      9.65557     11.48488         0.216812      0.003917     -0.349022
O      11.49755      1.82060      2.68273        -0.838271      0.156993      0.043520
O      11.57433      1.90881     15.86914         0.417133     -0.316627     -0.614094
O      11.56485     13.58472      2.62820        -0.524105     -0.679973     -0.204564
O      11.63695     13.35046     15.65560        -1.003897     -0.085448      0.654334
O      11.57115      2.02381      7.06996        -0.149775     -0.396437     -0.169419
O      11.51800     13.38490      7.00780         0.961209      0.305539      0.124066
O      11.53717      1.79531     11.40534        -0.637995      0.583125     -0.357601
O      11.56388     13.46375     11.36314        -0.696157      0.122552      0.254382
O      11.54813      5.69598      2.62975         0.784249      0.562858      0.258517
O      11.47449      5.73462     15.61934         0.775153      0.417740      0.034437
O      11.55945      5.76224      7.03869        -0.485423      0.160301      0.209953
O      11.51925      5.83051     11.36907        -0.152587     -0.346108      0.315339
O      11.47083      9.57520      2.62369         0.717565     -0.505761      0.164307
O      11.58727      9.56842     15.83987        -1.304767      0.133398     -0.084544
O      11.49424      9.52446      7.14893         0.204407      0.269805     -0.477213
O      11.50084      9.63066     11.47584        -0.312878      0.189952     -0.634513
O       1.84056      3.86093      2.62319         0.780682     -0.092784      0.213788
O       1.92364      3.76474     15.74125         0.124139      1.811337     -0.130781
O       1.79352      0.07179      2.78712         0.766012     -1.077784     -0.699915
O       1.93742     15.30660     15.86300         0.417723     -0.381089     -0.215470
O      13.33782      3.74963      2.66989         0.442407      1.488857     -0.158920
O      13.45557      3.82145     15.83613         0.005268     -0.352094     -0.798828
O      13.50995     15.34432      2.75348         0.010737     -0.618930     -0.355800
O      13.54691      0.02489     15.79802        -0.283768     -0.473769     -0.205353
O       1.96220      3.78369      7.03977        -0.056855      0.999496      0.294887
O       1.95499      0.04623      7.02161         0.305433     -0.661763      0.365527
O      13.48128      3.82242      7.20621         0.088896      0.642062     -0.295405
O      13.43095      0.08076      6.98676         0.019407     -0.731209      0.254411
O       1.88573      3.87569     11.32850         0.266729     -0.329917      0.815817
O       1.91964      0.04530     11.39294         0.224579     -0.265708      0.356600
O      13.36098      3.92780     11.32966         0.436636     -0.761561      0.468419
O      13.45050      0.06508     11.37446         0.341935     -0.544903      0.117090
O       1.77819      7.70276      2.71872         0.130608     -0.784515      0.147461
O       1.77800      7.60107     15.68623         0.560054      0.385563      0.582948
O      13.53162      7.58807      2.70880        -0.592272      0.756448     -0.019415
O      13.44954      7.64018     15.78327         0.104627      0.289228     -0.312900
O       1.88665      7.64792      7.06360         0.419935      0.505660     -0.218034
O      13.52770      7.69722      7.00010        -0.019744     -0.318313     -0.127729
O       1.98328      7.78072     11.42082         0.007643     -0.507871     -0.123210
O      13.26893      7.71929     11.23911         1.044468     -0.292769      0.532674
O       1.86194     11.47600      2.67013         0.604987      1.268808      0.048147
O       1.97307     11.40394     15.85346        -0.155500      1.095126      0.239838
O      13.29101     11.49734      2.57097         0.505272      0.064650     -0.095861
O      13.56666     11.46734     15.72587        -0.374547      0.753347      0.611501
O       1.81922     11.55214      6.95783         0.834151      0.266055      0.296679
O      13.48538     11.50158      7.05500        -0.036920      0.303509      0.087768
O       1.69660     11.63213     11.34158         0.932419     -1.399440      0.345030
O      13.43205     11.51720     11.30787         0.328130      0.541924      0.464711
O       5.80751      3.82266      2.71684        -0.163374      1.034231      0.075983
O       5.79252      3.84708     15.85233         0.106649      0.826469     -0.455581
O       5.79824      0.06414      2.60257        -0.120452     -0.926249      0.155833
O       5.71138      0.09611     15.80984         0.154929     -1.739269      0.203982
O       5.78858      3.81610      7.07778         0.730187      0.467187      0.166508
O       5.76544      0.02770      7.04715         0.480486     -0.944361      0.085418
O       5.70996      3.82870     11.31100        -0.189324      0.014481      0.347911
O       5.67773     15.27139     11.51760         0.336746      0.931843      0.115428
O       5.73009      7.68414      2.78068        -0.018340     -0.600744     -0.164975
O       5.84557      7.64805     15.85293        -0.347669      0.056033     -0.342549
O       5.68559      7.70150      7.13661         0.393723      0.424632     -0.162244
O       5.63618      7.71812     11.31583         0.082976     -0.032536      0.476621
O       5.80937     11.54541      2.67991        -0.556066     -0.399037     -0.136381
O       5.85407     11.40010     15.90352        -0.567089      0.716623     -0.260372
O       5.75314     11.55085      7.02561         0.422226     -0.516615      0.077324
O       5.73279     11.56128     11.42299         0.392499     -0.751078      0.434678
O       9.66494      3.90539      2.72876        -0.518312     -2.133335     -0.084215
O       9.69633      3.87303     15.81696        -0.814250     -0.172651     -1.079495
O       9.60888     15.33412      2.62502        -0.770552      0.648224     -0.057498
O       9.75675     15.28198     15.70727        -0.182310     -0.434824      0.309777
O       9.60239      3.79341      6.96733        -0.102353      0.795206      0.425783
O       9.70116     15.29176      7.12633        -0.045950      0.660029     -0.590654
O       9.65873      3.82966     11.51156        -0.395705     -0.704612     -0.314778
O       9.49657     15.28271     11.45085         0.323598      0.978156     -0.362237
O       9.68105      7.63138      2.76515        -0.116604      0.677447     -0.134712
O       9.60197      7.65855     15.74919         0.233001     -0.189188      0.102059
O       9.59468      7.72517      7.04283        -0.069739     -0.347977     -0.083833
O       9.60940      7.74842     11.38899        -0.605759     -0.371352     -0.152065
O       9.63267     11.47280      2.56435        -0.208835      0.736545      0.135497
O       9.56753     11.43058     15.92168         0.575044      0.586577     -0.718948
O       9.73645     11.51474      7.02253        -0.754822     -0.662135      0.108127
O       9.68153     11.51159     11.40571        -0.813040      0.358633     -0.073549
