  # total energy = -7880.09976365 
CRSYTAL
PRIMVEC
    15.3600000000000000    0.0000000000000000    0.0000000000000000
     0.0000000000000000   15.3600000000000000    0.0000000000000000
     0.0000000000000000    0.0000000000000000    17.440000000000000
PRESSURE
0.235429 0.392343 -3.6186 0.12651 0.335304 -0.059998
PRIMCOORD
320 1
Pb       3.80529      3.79569      4.43193        -0.106411      0.163758     -0.660576
Pb       3.90194      3.73093     17.38923        -0.232677      0.558838     -0.091439
Pb       3.76974     15.29810      4.40932        -0.093391     -0.294379      0.188455
Pb       3.79433     15.33840     17.36811         0.008151     -0.071671     -0.114729
Pb       0.04433      3.77159      4.42270        -0.372571     -0.079261     -0.596690
Pb       0.16321      3.85885      0.07545        -0.601794      0.170555     -0.437184
Pb       0.07475     15.27770      4.32496        -0.336319      0.393456     -0.221636
Pb      15.12368     15.25530      0.02527         0.339764      0.304697     -0.474652
Pb       3.71802      3.91311      8.68630         0.236940     -0.056135     -0.390113
Pb       3.84081      0.00855      8.80781        -0.014223     -0.030489     -0.949695
Pb      15.09508      3.98804      8.67652         0.315486     -0.569611     -0.187231
Pb      15.21234      0.14433      8.77281        -0.083446     -0.157082     -0.507237
Pb       3.82994      3.73951     12.93173        -0.020255      0.674198     -0.087411
Pb       3.70295     15.27481     12.90441         0.208022     -0.069855      0.045356
Pb       0.02894      3.66675     13.14133        -0.106548      0.295243     -0.062565
Pb       0.02455     15.32907     12.98555        -0.441203      0.102412     -0.139678
Pb       3.87773      7.64845      4.30597         0.417003      0.238465     -0.489084
Pb       3.67368      7.56936     17.42795         0.433416      0.235797     -0.228115
Pb       0.19223      7.75283      4.33196        -0.665762      0.129590     -0.545155
Pb      15.22151      7.70963     17.38010         0.324458     -0.289131     -0.301372
Pb       3.92556      7.68387      8.74266        -0.108353     -0.120229      0.258736
Pb      15.34410      7.64677      8.72200        -0.211748     -0.039176     -0.259328
Pb       3.78805      7.57957     13.03307        -0.017515      0.172534     -0.362496
Pb       0.05286      7.63281     13.16708         0.060410      0.114192     -0.473263
Pb       3.66307     11.51508      4.31800         0.796446      0.423424      0.361760
Pb       3.95522     11.38150     17.33928         0.058631      0.282165     -0.415757
Pb       0.06368     11.65116      4.24273        -0.324055     -0.379826     -0.359119
Pb      15.21078     11.49878     17.31013         0.295260      0.348615      0.161332
Pb       3.79490     11.57191      8.73806         0.156878     -0.175954     -0.415695
Pb      15.28565     11.37336      8.74836         0.551222      0.164797     -0.357679
Pb       3.90456     11.44914     12.97767         0.154424      0.059042     -0.177958
Pb       0.16134     11.49982     13.15365        -0.157350     -0.071476     -0.742545
Pb       7.72740      3.67894      4.41957        -0.274060      0.284397     -0.448618
Pb       7.60509      3.85156     17.40178         0.364847      0.119736     -0.449904
Pb       7.73539     15.33343      4.41475        -0.092382      0.197104     -0.553524
Pb       7.45809     15.31605     17.38575         0.430933      0.091249     -0.702762
Pb       7.65389      3.83879      8.70539         0.055015      0.284969     -0.652173
Pb       7.66549     15.28150      8.62144        -0.210509      0.037412     -0.033492
Pb       7.83312      4.00137     13.23150         0.045392     -0.406376     -0.691396
Pb       7.60112      0.19201     13.01878         0.211833     -0.569152     -0.111114
Pb       7.63699      7.49401      4.27806        -0.234776      0.584169      0.540135
Pb       7.55906      7.68410      0.00213         0.127884      0.145997     -0.123366
Pb       7.61658      7.82363      8.68041         0.350140     -0.420937     -0.282954
Pb       7.58651      7.63273     12.96557         0.438272      0.416596      0.008326
Pb       7.72434     11.38837      4.40645        -0.540226      0.275896     -0.461958
Pb       7.54389     11.60369     17.38393         0.211754     -0.163158     -0.699999
Pb       7.66281     11.51872      8.69451        -0.200215     -0.069371     -0.031014
Pb       7.81113     11.57582     13.02764        -0.614919      0.039574      0.007451
Pb      11.50808      3.74161      4.34577         0.123947     -0.095828     -0.538907
Pb      11.61919      3.80691      0.09649        -0.180882     -0.200374     -0.550148
Pb      11.56471     15.26927      4.32974         0.125675      0.057042     -0.583883
Pb      11.35516     15.24482     17.39393         0.073346      0.306845     -0.110399
Pb      11.47888      4.05103      8.71845        -0.307100     -0.660071     -0.345026
Pb      11.44930     15.30942      8.66562         0.300536      0.064431      0.081962
Pb      11.58510      3.69202     13.30584        -0.513705      0.141407     -0.768338
Pb      11.48176     15.33116     13.06025         0.301751      0.286303     -0.975373
Pb      11.51624      7.68856      4.21232         0.142681     -0.032062      0.306409
Pb      11.45349      7.59346      0.07472         0.165147      0.611984     -0.863397
Pb      11.54167      7.69003      8.70197        -0.176104      0.223671     -0.648946
Pb      11.40208      7.66072     13.09861        -0.092808     -0.425050     -0.674910
Pb      11.57021     11.38623      4.36009         0.006950      0.491521     -0.602998
Pb      11.32364     11.47149     17.38402         0.468887     -0.221975      0.128037
Pb      11.54379     11.53175      8.80787        -0.029235     -0.295779     -0.725372
Pb      11.48771     11.44046     13.01598         0.231709      0.233550     -0.355586
Ti       1.83711      1.88429      2.27035        -0.133700      0.281389      0.460391
Ti       1.86775      1.88170     15.45949        -0.924297     -0.301372     -2.089780
Ti       1.97231     13.54059      2.17577        -0.515487     -1.237454      0.080871
Ti       1.99677     13.46606     15.37042        -0.654826     -0.433474     -0.332416
Ti      13.33616      1.87932      2.22676         0.443083      0.036647      0.180608
Ti      13.35681      1.90851     15.43835         0.494373     -0.192174      0.101092
Ti      13.43477     13.36949      2.27456        -1.137836     -0.275388     -0.737818
Ti      13.40924     13.44455     15.27995         0.362845     -0.344859     -0.780411
Ti       1.81887      1.88460      6.67594         0.260307     -0.023625     -0.292171
Ti       1.86184     13.46403      6.80265         1.214852     -0.654809     -1.118187
Ti      13.33472      1.85456      6.67406         0.370297      0.324853     -1.230530
Ti      13.51187     13.35955      6.63638        -0.660634      1.313023     -0.075433
Ti       1.84418      1.95276     10.97718        -0.140048     -0.443389     -0.760695
Ti       1.86794     13.38781     10.90302         0.546024     -0.420241      1.070223
Ti      13.40370      2.05011     11.00814        -1.130685     -1.065251      0.152396
Ti      13.44097     13.41975     10.92451         0.208237      0.464015     -0.239526
Ti       1.94196      5.76308      2.31660         0.554426     -0.096794     -0.872012
Ti       1.96550      5.67335     15.39142        -0.063618      1.190342     -0.604643
Ti      13.48784      5.80846      2.28581         0.085102     -1.008743      0.106680
Ti      13.43135      5.69929     15.40244         0.219128      0.539938     -0.220849
Ti       1.89784      5.79660      6.60568         0.200185     -0.994312     -0.134504
Ti      13.41979      5.76213      6.53496         0.187925      0.220574     -0.037992
Ti       1.78474      5.67750     11.04702         1.863526      0.998339     -0.771133
Ti      13.46168      5.78542     11.07544        -1.668296      0.190696      0.309538
Ti       1.96703      9.67192      2.21001        -0.459216     -0.686416     -1.096479
Ti       2.06087      9.59928     15.40807         0.044866     -0.737792     -1.074583
Ti      13.38009      9.57247      2.23546         0.588689      0.560001      0.081458
Ti      13.49467      9.65193     15.32047        -0.969790     -0.357671      0.453804
Ti       1.96400      9.49453      6.75555         0.291996      1.380050      0.686638
Ti      13.45760      9.60391      6.62627        -1.120828     -0.975543     -1.362612
Ti       1.96280      9.50780     11.02879        -0.321897      0.847984     -0.732639
Ti      13.47426      9.55054     11.03217         0.456950      0.269053      0.959377
Ti       5.58967      1.89521      2.31751         0.901290      0.344911      1.015084
Ti       5.64835      2.03865     15.23666         0.931263     -1.238440      0.560558
Ti       5.72824     13.52684      2.29390        -0.284436     -1.468216      1.210209
Ti       5.72732     13.57078     15.22424         0.233978     -2.283552     -0.739512
Ti       5.70194      1.85452      6.66988        -0.337370      0.179157      0.227782
Ti       5.78785     13.37762      6.63609        -0.934735      0.197197      0.325483
Ti       5.70800      1.87846     11.00286         0.479634      0.786950      0.342826
Ti       5.81792     13.47140     11.00957        -0.161009     -0.548106     -0.577945
Ti       5.81150      5.72801      2.31543        -0.756102      0.173141     -0.136187
Ti       5.80268      5.75372     15.33232        -0.643310      1.037718     -0.070460
Ti       5.72317      5.75311      6.68947         0.712234      0.134468      0.272049
Ti       5.76781      5.69816     11.00675        -1.833052      0.117579     -1.676189
Ti       5.78729      9.69161      2.29820        -0.644915     -0.844272      0.104932
Ti       5.88171      9.54217     15.34233        -1.742055      1.287850     -1.193763
Ti       5.73344      9.61940      6.66961        -0.583644      0.502809     -0.240113
Ti       5.80276      9.59421     11.04937        -0.080283      0.009946     -0.480706
Ti       9.46035      1.93542      2.15582         0.513459     -1.132189     -0.487317
Ti       9.47752      1.88292     15.39992         0.371789      0.917837     -0.753316
Ti       9.53081     13.37536      2.24680         1.247465      0.134148     -0.338876
Ti       9.56212     13.45570     15.34274        -1.084786     -0.313456     -0.892494
Ti       9.57907      1.92574      6.74782        -0.018011      0.425435      0.211815
Ti       9.66291     13.34728      6.64284         0.430372      0.704488      0.076360
Ti       9.58161      1.98052     10.94434         0.700837      0.463136     -1.076717
Ti       9.67575     13.45413     10.95511        -0.594998      0.228120      0.079405
Ti       9.61763      5.75512      2.30345         0.073038     -0.422720      0.379187
Ti       9.58872      5.77802     15.42274         0.148994     -0.529122     -0.541637
Ti       9.59172      5.81870      6.55872        -0.245662      0.019264      0.361939
Ti       9.57116      5.76788     10.96795         0.750956      0.002168     -0.235039
Ti       9.52153      9.61488      2.36544         0.329515      0.217257     -1.757923
Ti       9.57876      9.60997     15.38437         0.248110     -0.327798     -0.003998
Ti       9.56510      9.60985      6.55053         0.886719     -1.158058      0.429753
Ti       9.61124      9.63489     10.98624        -0.739071     -1.296152     -1.460520
O       1.99949      1.85429      0.49394        -0.243910      0.406556     -0.147932
O       1.70504      1.88286     13.54437         0.643471      0.087725      1.693202
O       1.96343     13.43503      0.42243        -0.047947      0.287140     -0.522345
O       2.01079     13.49848     13.56553        -0.274795     -0.163778      0.588433
O      13.40903      1.90250      0.43277        -0.367686     -0.137637     -0.213298
O      13.33190      1.89186     13.62568         0.103812      0.071982      0.227745
O      13.41228     13.16456      0.48599         0.059507      0.948873     -0.236412
O      13.49151     13.53962     13.48277        -0.564458     -0.336113      0.791018
O       1.84032      1.77977      4.83927        -0.238763      0.447784      0.884366
O       2.12428     13.45543      4.95920        -1.169638      0.034242      0.583385
O      13.30651      1.80730      4.84173         0.114590      0.358309      0.311348
O      13.52474     13.35790      4.81912        -0.184686      0.079535     -0.115408
O       1.80825      1.90334      9.16754        -0.116824      0.190841      0.817255
O       1.91876     13.48623      9.15892        -0.367070     -0.012143     -0.366881
O      13.46025      2.07225      9.25056         0.034093     -0.333746     -0.756098
O      13.49333     13.43846      9.09365        -0.165952      0.039972      1.167360
O       1.86839      5.67362      0.46784         0.668475     -0.141908      0.558468
O       1.97602      5.78476     13.58849        -0.468623     -0.372004      0.559802
O      13.36624      5.76963      0.48938         0.127455     -0.066810      0.125788
O      13.54453      5.62819     13.63157        -0.469863      0.676304      0.019824
O       1.89078      5.87699      4.78020         0.019314     -0.126545      0.518697
O      13.58941      5.76568      4.77528        -0.159743     -0.112138     -0.439134
O       1.92820      5.69024      9.24535        -0.431206     -0.219016      0.613223
O      13.38143      5.87468      9.30589         0.501322     -0.375737     -0.788069
O       1.91608      9.57345      0.40132         0.271770      0.205283      0.643471
O       2.12537      9.49343     13.56355        -0.549366      0.340001      0.728544
O      13.30325      9.55306      0.44164         0.510912      0.186146      0.300818
O      13.47901      9.62694     13.54145        -0.175351     -0.013494      0.245995
O       2.07598      9.41374      4.97507        -0.568012      0.198995     -0.060544
O      13.44330      9.58025      4.78855         0.188402      0.064406      1.241727
O       1.86564      9.54526      9.22598        -0.185614     -0.166640      0.163313
O      13.46457      9.37708      9.28266         0.055872      0.544947     -0.503853
O       5.54446      1.84416      0.57252         0.448670      0.229676     -1.077192
O       5.69243      2.06378     13.51338         0.154309     -0.465313     -0.933382
O       5.72090     13.55973      0.54076         0.110122     -0.162906     -0.395974
O       5.75919     13.53341     13.44903         0.052405     -0.220088     -0.307815
O       5.71746      1.72760      4.89789        -0.116349      0.742961     -0.161420
O       5.71778     13.33669      4.85961         0.145804      0.346189      0.071590
O       5.70002      1.92700      9.27728         0.212326     -0.423742     -1.333491
O       5.89025     13.49477      9.17093        -0.155998      0.068583      1.196938
O       5.85625      5.77764      0.51518        -0.122642     -0.266517      0.430097
O       5.88471      5.70276     13.55675        -0.177689      0.087659     -0.062105
O       5.78781      5.88401      4.91332        -0.205923     -0.443493     -0.189500
O       5.69182      5.79603      9.11445         0.462813     -0.278841      1.604147
O       5.74952      9.53776      0.51300         0.238847      0.485848      0.197051
O       5.81285      9.64831     13.53270         0.009901     -0.399733      0.227430
O       5.66334      9.72925      4.89107         0.162362     -0.230737      0.381075
O       5.85921      9.48383      9.23973        -0.205957      0.528218      0.517014
O       9.49615      1.89364      0.32991        -0.078491      0.327474      0.995835
O       9.62460      2.01894     13.55460        -0.167178     -0.675553      0.363308
O       9.55364     13.24482      0.41574        -0.218392      0.543194      0.556148
O       9.49590     13.37382     13.54118         0.427021      0.515660      0.250903
O       9.55868      1.81370      4.96014         0.098175     -0.038992     -0.160418
O       9.80689     13.44800      4.87987        -0.640703      0.346837     -0.264440
O       9.73395      2.19367      9.09317        -0.908268     -0.674247      0.940303
O       9.79101     13.25798      9.16534        -0.412655      0.151528      0.299840
O       9.50141      5.60483      0.53822         0.350827      0.122035      0.005341
O       9.54383      5.83032     13.59330        -0.026052     -0.151418      0.455258
O       9.63261      5.80964      4.77000         0.150698      0.106797     -0.252707
O       9.50972      5.67036      9.18381         0.187150      0.238005      0.228641
O       9.50365      9.73075      0.53362         0.047287     -0.038729      0.390558
O       9.61502      9.54400     13.59171         0.085252      0.026020      0.241732
O       9.60582      9.56288      4.73927         0.056488     -0.066686      0.583645
O       9.59958      9.65284      9.15469         0.092328      0.223017      0.791337
O       3.75725      1.98597      2.68562         0.022191      0.309735      0.434147
O       3.80593      1.81486     15.71999         0.105898      0.692435      0.172291
O       3.74957     13.41170      2.71897         1.656256      0.231065     -0.287751
O       3.87871     13.47908     15.73357        -1.357635      0.065566      0.160208
O      15.29935      1.66818      2.60419         0.485168      0.584061      0.108279
O      15.34650      1.88546     15.87327        -0.382486      0.188333     -0.101987
O      15.31037     13.41769      2.51875         1.652978      0.467043      0.761265
O      15.33041     13.25942     15.63379         0.347576      0.593574      0.330050
O       3.73287      1.75976      7.09869         1.045821      0.521429     -0.129254
O       3.83559     13.40179      7.14231         0.388474      0.386465      0.179952
O      15.21723      2.02698      7.06175         1.907847     -0.219541      0.027670
O      15.35292     13.44048      7.01517         0.235105     -0.177494      0.175375
O       3.74633      1.87803     11.22074        -0.113530     -0.136356      0.669235
O       3.86893     13.45932     11.31318        -0.692632      0.460995     -0.124334
O      15.28090      1.98091     11.40787         0.888097      0.085391      0.105976
O      15.31847     13.33977     11.39832         0.917890      0.063644     -0.198438
O       3.92978      5.69367      2.73272        -0.241385     -0.533938      0.038430
O       3.90107      5.65322     15.70785        -0.677498      0.522729      0.335857
O       0.12299      5.80349      2.54854        -1.488520      0.511474      0.485598
O      15.30550      5.69156     15.82554         0.788635      0.052214      0.081255
O       3.83904      5.78350      7.04997        -0.107142      0.002334     -0.175570
O      15.34289      5.72241      7.03548         0.642469      0.059472     -0.101896
O       3.77094      5.71401     11.36334         0.910819      0.097372      0.420677
O      15.32705      5.67146     11.41656         0.681484      0.225784      0.277126
O       3.81345      9.65529      2.64087         0.762762      0.202890      0.064560
O       3.90610      9.49026     15.85371        -0.337195      0.189185     -0.025732
O       0.02959      9.50545      2.57407         1.027311     -0.065015      0.310100
O       0.01652      9.74472     15.66829        -0.569840     -0.833639     -0.019584
O       3.81660      9.63043      7.29256        -0.105047     -0.039468     -0.764574
O      15.28685      9.54231      7.11493         1.182751     -0.006782     -0.082830
O       3.85347      9.47898     11.36288         0.832334      0.493184      0.168922
O       0.05456      9.70354     11.41463        -0.445971     -0.057569      0.344995
O       7.57178      1.90127      2.74595         0.851720     -0.426066     -0.159326
O       7.58447      2.05319     15.60788        -0.580995     -0.475853      0.370220
O       7.73812     13.51640      2.64649        -1.551322     -0.207600      0.290903
O       7.53717     13.51207     15.71422         1.169378     -0.643374      0.704589
O       7.60540      1.90576      6.94628         1.108138      0.014792      0.660976
O       7.71261     13.35625      6.97521         0.474573      0.247318      0.109859
O       7.67241      1.86221     11.31821         0.372414      0.217383      0.106740
O       7.80519     13.40511     11.26611        -0.941507      0.310683      0.245683
O       7.73884      5.71377      2.81182         0.209854      0.178724     -0.486318
O       7.64698      5.73025     15.80218         0.390059     -0.402047      0.136364
O       7.70714      5.81241      6.90558        -0.520922      0.249089      0.342333
O       7.54599      5.74257     11.38336         1.826036     -0.496318      0.120835
O       7.67584      9.59029      2.75805        -0.317229     -0.024619      0.076151
O       7.64753      9.54355     15.76758         1.172623      0.345120      0.366857
O       7.63890      9.67261      6.96082         0.769628     -0.164378      0.049727
O       7.71123      9.62562     11.22931        -0.442110      0.053401      0.794253
O      11.44872      2.03521      2.57862        -0.166106     -0.706771      0.061860
O      11.45464      1.89961     15.71875         0.330735     -0.517301      0.366615
O      11.54323     13.25152      2.57287        -0.735321      0.394915      0.457063
O      11.41248     13.53580     15.64528         0.336319     -0.072691      0.123917
O      11.50114      2.00611      7.01436        -0.685246     -0.581279      0.180543
O      11.56906     13.53261      7.06161        -0.063419     -0.551597     -0.127204
O      11.46012      1.97149     11.31918         0.652558      0.005102      0.796129
O      11.52988     13.38014     11.33396         0.246303      0.114299      0.477484
O      11.60924      5.78575      2.69854        -0.888149     -0.652499     -0.163684
O      11.48648      5.75002     15.73459        -0.080361     -0.069239      0.352246
O      11.57756      5.73318      6.92106        -0.849693      0.367975      0.213970
O      11.50658      5.97951     11.31954         0.052465     -0.320851      0.383261
O      11.49877      9.65583      2.63138         0.552460     -0.086231      0.271721
O      11.45974      9.67428     15.81240        -0.213407     -0.574791     -0.552328
O      11.53999      9.51938      7.03044         0.144093      0.667529     -0.125565
O      11.46367      9.66453     11.31897         1.517705     -0.863530      0.544244
O       1.77170      3.79778      2.79847         0.536887     -0.327375     -0.265404
O       1.92689      3.80572     15.76213        -0.003881     -0.448605      0.335578
O       1.97877      0.00402      2.73269        -0.143932     -0.128030     -0.278303
O       1.86026      0.03398     15.77135         0.075417     -1.470295      0.086501
O      13.53064      3.76862      2.52058         0.075944      0.861017      0.631641
O      13.38055      3.80184     15.67320        -0.234920     -0.404339      0.621345
O      13.30806     15.32791      2.50278        -0.147198     -0.639755      0.318436
O      13.41523     15.28690     15.78863         0.025761      0.386251      0.322011
O       2.14560      3.86721      6.80238        -0.959777     -0.412342      0.179841
O       1.91178     15.35644      6.97970        -0.723083      0.288700      0.584803
O      13.40171      3.82583      7.02758         0.087623      0.831698     -0.075999
O      13.53392     15.32997      6.91680        -0.443563      0.549101      0.681322
O       1.94901      3.83609     11.51957        -0.614619     -0.751606     -0.483212
O       1.81463     15.34568     11.40031         0.049344     -0.040611     -0.479920
O      13.39891      3.90397     11.37711        -0.164748     -0.196724      0.463447
O      13.45151      0.07055     11.29614        -0.104701     -0.860243      0.146642
O       2.26776      7.63707      2.47934        -1.297092      0.526530      0.465787
O       1.94350      7.60864     15.64794        -0.310443      0.045259      0.791830
O      13.42962      7.67470      2.58385         0.073352      0.051554      0.186273
O      13.40485      7.66977     15.83319         0.141951      0.607119     -0.516590
O       1.99490      7.59076      7.11576        -0.588386      1.008733     -0.039810
O      13.43698      7.66083      6.98319         0.219382     -0.091573      0.138048
O       1.96430      7.68415     11.42202        -0.882867     -1.447224      0.254654
O      13.64586      7.67202     11.44287        -0.440378      0.595212      0.566550
O       2.03397     11.60928      2.65416        -1.388261     -1.158202     -0.176164
O       1.98081     11.43206     15.57013         0.443523      1.548830      0.450074
O      13.58993     11.44079      2.66177        -0.289434     -0.047744      0.326451
O      13.29403     11.56548     15.65665         0.236929     -0.687619     -0.002343
O       1.90202     11.48777      7.04371        -0.283352     -0.454375      0.343568
O      13.44400     11.55815      7.02169        -0.015922     -1.663658      0.290160
O       2.06986     11.47557     11.24519        -0.459651      1.021335      0.574393
O      13.37077     11.52932     11.21113         0.088530     -0.429707      0.248011
O       5.85102      3.85582      2.66111        -0.353949     -0.679876      0.262146
O       5.73155      3.88069     15.69502        -0.216819     -0.766266      0.575045
O       5.55219     15.34014      2.62765         0.694325      0.433630      0.386933
O       5.76853     15.34421     15.52402        -0.166282      2.642297      0.880399
O       5.79215      3.83297      7.03765        -0.554885     -0.230536     -0.283339
O       5.85100     15.32013      7.00089        -0.228581     -0.119748      0.444588
O       5.69066      3.74269     11.35121         0.017014      1.319694      0.056589
O       5.72770     15.35124     11.44064         0.296869      0.085607     -0.027198
O       5.84324      7.73253      2.65842        -0.256896     -0.782161      0.282642
O       5.83326      7.71299     15.73778        -0.291357     -1.593944      0.022637
O       5.67174      7.77081      7.03992         0.441029     -0.742854      0.051192
O       5.83890      7.67937     11.38623        -0.465564     -0.468062      0.043812
O       5.84064     11.55447      2.62964        -0.125607      0.217576     -0.142095
O       5.68760     11.53165     15.65253         0.173740     -0.354757      0.637364
O       5.75757     11.53854      7.18846        -0.081864     -0.357598     -0.150708
O       5.74003     11.57254     11.41143         0.190381     -0.484728     -0.308269
O       9.62930      3.75072      2.64854        -0.520696      0.958673      0.317879
O       9.57249      3.78714     15.58837        -0.153738      1.046169      0.683343
O       9.52260     15.33035      2.41292         0.812389      0.389102      0.632021
O       9.32852     15.35547     15.68179         0.831906     -0.160431      0.412729
O       9.57119      3.94749      6.91214        -0.037620     -1.262456      0.162844
O       9.62949     15.29155      7.20979        -0.466969      0.897696     -0.536136
O       9.69801      3.91164     11.34175        -0.786770     -0.313040      0.545998
O       9.73149      0.04130     11.17899        -0.381040     -0.699621      0.246587
O       9.73723      7.71022      2.45030        -0.439067     -1.285062      0.569217
O       9.53334      7.62603     15.76627         0.241817      0.753802      0.406685
O       9.65096      7.73435      7.06666        -0.363756     -0.265562     -0.356114
O       9.52174      7.64403     11.33310        -0.125974      0.834065      0.433213
O       9.56199     11.46247      2.76626        -0.155152      1.197606      0.115568
O       9.40447     11.53662     15.62473         0.332865     -0.090008      0.364761
O       9.67852     11.47714      6.84574         0.056300      0.084821      0.447655
O       9.58708     11.43920     11.49236         0.407019      1.403750     -0.179122
