  # total energy = -7879.62226757 
CRSYTAL
PRIMVEC
    15.6000000000000000    0.0000000000000000    0.0000000000000000
     0.0000000000000000   15.6000000000000000    0.0000000000000000
     0.0000000000000000    0.0000000000000000    17.640000000000000
PRESSURE
-2.96576 -3.36148 2.31719 0.066704 -0.457168 -0.043392
PRIMCOORD
320 1
Pb       3.91524      3.91812      4.26611        -0.859460     -0.169287      0.610250
Pb       3.78288      3.72468     17.55465         0.387278      0.001878      0.038641
Pb       4.06364      0.09597      4.38720        -0.587624     -0.131401     -0.395025
Pb       3.99611     15.51542     17.49014         0.123474      0.152453     -0.070666
Pb       0.00678      3.88293      4.30232         0.069926     -0.527613     -0.081403
Pb      15.50372      3.79067     17.57956         0.290870      0.274534     -0.422368
Pb      15.59746     15.58473      4.30995        -0.169982      0.016437      0.047345
Pb       0.18586     15.50715     17.57214        -0.409183      0.093244      0.240943
Pb       3.93449      3.81413      8.71871        -0.190179      0.168708      0.226033
Pb       3.86256     15.57962      8.74387        -0.290079      0.091751      0.324407
Pb       0.03824      3.78466      8.66257        -0.228678      0.056177      0.521313
Pb       0.06372     15.56129      8.95118        -0.156506      0.225731     -0.307053
Pb       3.70730      4.09606     13.07191         0.144087     -0.273487      0.262366
Pb       3.85632      0.04485     13.19452        -0.011722     -0.285003     -0.206619
Pb      15.50946      3.82195     13.22227         0.116995      0.037501      0.034272
Pb       0.01197      0.00647     13.13282         0.101576     -0.070583      0.057386
Pb       3.82141      7.79704      4.16023         0.068775     -0.209260      0.819573
Pb       3.73378      7.80500     17.55356         0.438889     -0.101609      0.427112
Pb      15.48999      7.71345      4.42684         0.169523      0.288370      0.262938
Pb      15.43014      7.76871      0.02114         0.670908      0.076485     -0.225348
Pb       3.82803      7.76247      8.74630         0.451914      0.072172      0.043537
Pb       0.07665      7.77831      8.63637        -0.614606      0.041043      0.793599
Pb       3.86280      7.89300     13.17314         0.329986     -0.886419     -0.304931
Pb      15.37402      7.83043     13.18320         0.387444     -0.008483     -0.147840
Pb       3.89358     11.63533      4.29717        -0.076119     -0.126112     -0.550022
Pb       3.92360     11.63950     17.54592        -0.335798      0.136207      0.054146
Pb      15.57959     11.58869      4.39620         0.155857      0.665262      0.430882
Pb      15.58670     11.55799      0.12250         0.166482      0.287049     -0.124319
Pb       3.91025     11.71075      8.62424        -0.456596     -0.330195      0.723801
Pb       0.04013     11.56210      8.78305        -0.544510      0.316339      0.241117
Pb       3.92148     11.58068     13.23247         0.071910      0.721837     -0.010157
Pb       0.13607     11.59544     13.23714        -1.004353      0.373759     -0.298423
Pb       7.82499      4.05752      4.28957        -0.130978     -0.532652      0.101952
Pb       7.83863      3.79547     17.47702        -0.062948      0.321532      0.593899
Pb       8.00342     15.59599      4.33360        -0.269879      0.453312     -0.317444
Pb       7.89049     15.39618     17.61912        -0.491941      0.656701     -0.312619
Pb       8.03308      3.90018      8.66087        -0.724239     -0.141842      0.438241
Pb       7.75827     15.51507      8.64527        -0.414161      0.712138      0.523587
Pb       7.62427      3.83479     13.02461         0.492601     -0.061284      0.656706
Pb       7.70146     15.46240     13.18563         0.153367      0.087644     -0.244191
Pb       7.66073      7.85365      4.31673         0.194573     -0.066212      0.023017
Pb       7.82190      7.78868     17.49262        -0.196026      0.008336      0.446274
Pb       7.88552      7.79656      8.75152        -0.416369      0.086018     -0.020177
Pb       7.85058      7.67537     13.14371        -0.436433      0.220186      0.149089
Pb       7.74376     11.71539      4.32797        -0.091463     -0.043505      0.216820
Pb       7.76369     11.75675     17.63594        -0.031963     -0.459708     -0.216196
Pb       7.73815     11.64337      8.82029         0.314616     -0.368812     -0.174274
Pb       7.78781     11.51224     13.21401         0.669882      0.326974     -0.135600
Pb      11.56601      3.96155      4.33104         0.052836     -0.017285      0.065589
Pb      11.68101      3.98116     17.48691        -0.282309     -0.167814     -0.083344
Pb      11.79057      0.04855      4.35544        -0.259362     -0.680862      0.053839
Pb      11.78564      0.02738     17.51079        -0.065771     -0.137616      0.229287
Pb      11.72958      3.90844      8.75764        -0.296661     -0.159720      0.373692
Pb      11.59310     15.51836      8.81507         0.294229      0.271807     -0.394057
Pb      11.57532      3.89843     13.18571         0.227025     -0.178081      0.392271
Pb      11.74625     15.59191     13.20648        -0.391615      0.497617      0.069879
Pb      11.64998      7.85033      4.34321        -0.266017     -0.026426      0.227440
Pb      11.80495      7.89141     17.59826        -0.903060      0.087543      0.088674
Pb      11.81586      7.75103      8.76913        -0.333135      0.163930      0.181755
Pb      11.66908      7.86923     13.19547         0.108315     -0.447160     -0.050184
Pb      11.75319     11.83344      4.51856        -0.257790      0.425116      0.064291
Pb      11.60931     11.81765      0.07295         0.437187     -0.544019     -0.365755
Pb      11.59170     11.75152      8.73820         0.099223     -0.443566      0.452402
Pb      11.83023     11.70184     13.20080        -0.632699     -0.231794      0.120117
Ti       1.95675      1.88686      2.35594        -0.040259     -0.213211      1.480815
Ti       1.94340      1.91402     15.51589         0.240945     -0.423147     -1.296946
Ti       1.90774     13.61299      2.45545        -0.691007      0.164972     -0.213994
Ti       1.95035     13.56310     15.59914        -0.090990     -0.160403      0.852264
Ti      13.54081      2.00134      2.33419         1.252303     -1.047898     -0.601409
Ti      13.62957      1.92804     15.69349         0.291544     -0.054742     -1.359701
Ti      13.61052     13.66456      2.40733         0.191617     -0.501783      1.669534
Ti      13.76038     13.60518     15.66598        -0.638922      0.174767      0.032124
Ti       1.91366      1.92462      6.70322        -1.021934      0.090086      2.371029
Ti       1.74885     13.64319      6.90519         0.422207      0.378179      1.589913
Ti      13.49911      1.91899      6.77451         0.901492     -0.092501      1.265390
Ti      13.56419     13.68220      6.99648        -0.392006     -0.064745     -0.410658
Ti       1.96020      1.93012     11.21150        -0.561914      0.127949      2.295467
Ti       1.92815     13.54344     11.24502        -0.322158      0.662243      0.178106
Ti      13.62190      1.97523     11.25810        -0.571005      0.608607      0.801367
Ti      13.60321     13.73405     11.22975         0.477631     -1.640280      0.395628
Ti       1.84256      5.85912      2.35594         0.509064     -0.613709     -0.634084
Ti       1.92032      5.78535     15.68515        -1.083899      0.288217     -0.507019
Ti      13.63037      5.84004      2.37727        -0.769609      0.206809      0.125270
Ti      13.63122      5.88811     15.61664        -0.378956     -0.536987      0.868179
Ti       2.01702      5.83336      6.79253        -0.352160     -0.886077     -0.433916
Ti      13.67960      5.84150      6.89702        -0.707902     -0.631356     -0.139530
Ti       1.81822      5.89219     11.15746         0.892124     -0.388186      1.070897
Ti      13.67247      5.82108     11.24533        -1.526341      0.276378      1.294575
Ti       1.81448      9.69481      2.45314         0.293408      0.346674      1.077451
Ti       1.87078      9.65440     15.61140        -0.572480      0.941045      0.567900
Ti      13.52564      9.80842      2.57314         0.239693     -0.086275      0.611954
Ti      13.60293      9.85773     15.63840        -0.377650     -0.079712      2.496711
Ti       1.92096      9.71585      6.73878         0.411785      0.240440      1.001131
Ti      13.59003      9.74887      6.78047        -0.283454      0.322360      0.440516
Ti       1.86963      9.70727     11.17559         0.222393     -0.253729     -0.297948
Ti      13.59160      9.78007     11.11267        -0.105432      0.022207      0.977645
Ti       5.89461      1.97352      2.31592        -0.110773     -1.026263      1.459250
Ti       5.83330      1.93831     15.48076         0.693562     -0.739765      0.872840
Ti       5.80695     13.67808      2.32713        -0.502970      0.067082     -0.561898
Ti       5.84964     13.56423     15.58063        -0.082289      0.602339      1.335618
Ti       5.77310      1.91624      6.75915         0.703955      0.428885      1.369295
Ti       5.74225     13.60525      6.76310         0.224045      0.045333      0.392511
Ti       5.76443      1.94785     11.14830         0.040783     -0.913672      0.697398
Ti       5.82729     13.60310     11.21345        -0.161430      0.371390      2.326937
Ti       5.80768      5.78114      2.26066        -0.288078      0.350390      1.976004
Ti       5.69945      5.75266     15.69398         1.243031      0.586610      2.106810
Ti       5.79715      5.72534      6.74372         0.207912      0.737411      1.016688
Ti       5.85337      5.74147     11.06093        -1.321844      1.978171      0.187188
Ti       5.83384      9.71875      2.27685        -0.844016      0.211756      1.316798
Ti       5.79927      9.67216     15.65023         0.500656      0.008163      1.292780
Ti       5.83639      9.65659      6.77014        -0.292245      0.565148      1.526278
Ti       5.84722      9.70728     11.22206         0.315389     -0.767003      1.558194
Ti       9.78539      2.02464      2.31931        -0.807326     -0.617280      1.142571
Ti       9.61791      1.86144     15.59042         1.140358      0.399637     -0.063183
Ti       9.65497     13.61921      2.40543         1.784513      1.058321      1.457519
Ti       9.80493     13.53461     15.68910        -0.246927      0.827282      0.108710
Ti       9.68312      1.96896      6.69884         0.109631      0.166902      0.590390
Ti       9.57017     13.64457      6.83846         2.203103     -0.892747     -0.380105
Ti       9.63806      1.89386     11.23731         1.210110     -0.149692      2.008716
Ti       9.77805     13.63749     11.27129        -1.338548     -1.152508      1.227043
Ti       9.74456      5.94087      2.31688        -0.586552      0.075405      2.266535
Ti       9.65412      5.86185     15.62875         1.095284     -0.408974     -1.631810
Ti       9.72373      5.92132      6.75422         0.448921     -0.495025      1.138469
Ti       9.72698      5.74862     11.27662         0.804102      0.891727      0.826989
Ti       9.64032      9.84319      2.42781         0.102644     -0.762890      0.701207
Ti       9.66660      9.70712     15.62642         1.373061      1.027509      1.069332
Ti       9.73782      9.70931      6.76056        -0.258128      0.747596      0.641404
Ti       9.81683      9.67535     11.18262        -0.757528      1.056314      1.733401
O       2.07412      1.77204      0.65613         0.128656      0.449106     -1.837993
O       1.99458      1.97071     13.71616        -0.355485     -0.125460      1.116794
O       1.77432     13.65301      0.74087         0.230159     -0.085061     -1.214193
O       1.94492     13.51870     13.89959        -0.354650     -0.037485     -1.200833
O      13.66016      1.93159      0.56411        -0.144953      0.233824      0.067969
O      13.69650      1.99069     13.92996         0.113166     -0.571747     -0.011298
O      13.69692     13.61437      0.72736        -0.160908     -0.274072     -2.030036
O      13.66796     13.58312     13.92263        -0.038616      0.198670     -0.544330
O       1.83973      1.95560      5.01894         0.111090     -0.075648     -1.412252
O       1.70309     13.70073      5.24812         0.346811     -0.104740     -2.571502
O      13.50569      1.89949      5.06633        -0.000698      0.347044     -1.627967
O      13.42087     13.75570      5.28252         0.303579     -0.430147     -1.055665
O       1.88603      1.87349      9.53015         0.140048     -0.059214     -1.977809
O       1.74027     13.70338      9.51465         0.486603     -0.089891     -0.747559
O      13.60579      1.97913      9.57259        -0.133264     -0.040631     -1.643032
O      13.47465     13.65778      9.49680         0.186674      0.394477     -0.320448
O       1.74963      5.85828      0.60835         0.330979      0.051826     -0.159677
O       1.91029      5.76180     13.95263         0.104745      0.038885     -0.449552
O      13.52681      6.00309      0.64556         0.377103     -0.351659      0.052286
O      13.60505      6.01563     13.92550         0.237473      0.045909     -1.326207
O       1.94838      5.76701      5.05372        -0.299873      0.040175     -0.133819
O      13.67882      5.79259      5.16826        -0.075625     -0.191790     -0.638662
O       1.94829      5.88208      9.45550        -0.144827      0.070942     -1.339915
O      13.58768      5.82474      9.54602         0.019999     -0.041268     -1.539262
O       1.75047      9.81768      0.77343         0.099876     -0.512781     -2.231589
O       1.77671      9.76955     13.86027         0.237243     -0.410461     -0.044435
O      13.55203      9.85499      0.84007         0.026351     -0.285894     -0.257118
O      13.52429      9.84403     13.96333         0.478542     -0.269377     -1.884839
O       1.94115      9.67198      5.04255        -0.187354      0.261057     -1.178648
O      13.62303      9.64123      5.02980        -0.250232      0.158028     -0.161463
O       2.04369      9.67700      9.41184        -0.461146      0.043984      0.484681
O      13.48759      9.76722      9.39567         0.324850     -0.105816     -0.984393
O       5.84311      1.89163      0.61834        -0.360304      0.380336     -0.920025
O       5.86549      2.03610     13.75057         0.300630     -0.096604     -0.678866
O       5.82270     13.65542      0.54068         0.033350      0.067537      0.942749
O       5.73515     13.54022     13.90016         0.409768      0.184648     -1.659835
O       5.74300      1.84005      5.07958         0.034116      0.067653     -1.896223
O       5.75087     13.57128      5.03521        -0.076056     -0.052777     -0.466039
O       5.70730      1.94692      9.42783         0.021437     -0.238006     -0.597796
O       5.75615     13.69857      9.52769         0.023094     -0.279012     -1.801934
O       5.78448      5.82428      0.58783        -0.155594     -0.239535     -1.619384
O       5.74498      5.88021     14.04044         0.279209     -0.208362     -2.285399
O       5.75693      5.71948      5.03653         0.264227      0.195628     -0.989207
O       5.80855      5.78678      9.33246        -0.050891      0.175822     -0.478527
O       5.79348      9.75340      0.57927         0.172680     -0.110799     -0.783534
O       5.75580      9.67567     13.95441        -0.123912     -0.119729     -1.350549
O       5.89295      9.76259      5.08323        -0.047079      0.254254     -2.156242
O       5.86437      9.72213      9.50400        -0.075335      0.146101     -0.559867
O       9.81700      2.09061      0.62625        -0.064635     -0.277364     -1.292569
O       9.61436      1.94059     13.85605        -0.195739     -0.062930     -0.066218
O       9.71281     13.79091      0.71597         0.021232     -0.592256     -2.036405
O       9.70950     13.45899     13.99118         0.033088      0.229496     -0.969767
O       9.65006      2.03378      4.96877         0.163278     -0.085152     -0.497258
O       9.75531     13.46563      5.12693        -0.512132      0.537993     -0.884998
O       9.73500      2.00543      9.56666        -0.103702     -0.448120     -2.347150
O       9.78083     13.60966      9.56655        -0.251016      0.478740     -1.797775
O       9.89053      5.84504      0.67541        -0.143547      0.187992     -2.745902
O       9.54031      5.80365     13.83586         0.200182      0.011547      0.434153
O       9.67386      5.82530      5.06051         0.142031      0.048189     -1.956977
O       9.79113      5.86816      9.57213        -0.184366     -0.035069     -1.222560
O       9.66476      9.77572      0.73680         0.140861      0.096226     -1.554676
O       9.76334      9.89506     13.93665        -0.059799     -0.356973     -0.850695
O       9.60101      9.62591      5.03972        -0.033371      0.446939     -0.442107
O       9.60913      9.69512      9.48240         0.132342     -0.283579     -1.295567
O       3.88820      1.89163      2.92566        -0.252710      0.290623     -0.604897
O       4.02217      1.95343     15.84537        -1.738189      0.001508      0.751239
O       3.75578     13.64379      2.66139         1.867788     -0.343918      0.827150
O       3.90156     13.64529     15.94224        -0.190818     -0.713436      0.723969
O      15.46477      1.83350      2.78269         0.071316      0.528131      0.000441
O       0.11172      1.92889     15.89820        -0.530355      0.024226      0.639855
O      15.54615     13.63332      2.89255         0.044277     -0.146600      0.350244
O       0.01517     13.68546     16.04982         0.956070     -0.400964     -0.008868
O       3.78996      1.81778      7.21896         0.627104      0.071325     -0.269528
O       3.81761     13.68866      7.31118         0.457029      0.097285     -0.619589
O      15.49548      2.06893      7.16517         0.616196     -0.491600     -0.180891
O      15.48753     13.55894      7.40016        -0.285260      0.524661      0.074263
O       3.82683      1.97711     11.65902         0.844775     -0.063882     -0.377832
O       3.77354     13.52020     11.69245         0.927648     -0.107157     -0.222337
O       0.00818      1.95198     11.58175        -0.377278     -0.130128      0.553385
O      15.51630     13.52815     11.61571        -0.255486      0.788350      0.277450
O       3.76192      5.84485      2.67108         0.556616     -0.204369      0.197032
O       3.84654      5.89573     15.98392        -0.387428     -0.310223      0.799487
O      15.55022      5.81114      2.79757        -0.728348     -0.045956      0.223727
O       0.00524      5.84534     15.99656        -0.738733      0.055001      0.568940
O       3.91367      5.81078      7.14607        -0.433856      0.478058      0.426968
O      15.56970      5.80751      7.24723         0.627433     -0.173326      0.016303
O       3.87556      5.97137     11.59480        -0.393762     -0.678425     -0.009120
O      15.49129      5.92639     11.75983         0.525247     -0.518644     -0.482215
O       3.78189      9.71085      2.69218         1.425153      0.014073      0.534533
O       3.85207      9.72887     16.14251        -0.450216     -0.297468     -0.511099
O      15.52898      9.78604      2.94210        -0.659484     -0.687525     -0.100419
O      15.56302      9.73736     16.23118        -0.292662     -0.375967     -0.739491
O       3.82361      9.75607      7.03405         0.063040      0.379577      0.710501
O      15.51567      9.74650      7.17017         0.670665     -0.025631      0.130387
O       3.85411      9.77180     11.74744        -0.396145     -0.239955     -0.706197
O      15.48785      9.72405     11.58939         1.230785     -0.068208     -0.057499
O       7.79335      1.89292      2.71875         0.115916      0.218915      0.218810
O       7.80960      1.92581     16.08214        -0.273742     -0.031504     -0.349614
O       7.78927     13.69121      2.77846        -1.192929      0.084798      0.147369
O       7.76244     13.57258     16.11931         0.448147      0.226155     -0.100011
O       7.77723      2.03789      7.18691        -0.090461      0.137267      0.114690
O       7.76165     13.54025      7.19913        -1.601150      0.204307      0.377524
O       7.74269      1.87207     11.52349        -0.580092      0.305732      0.328546
O       7.72723     13.66173     11.56543         0.031635      0.042173      0.386014
O       7.67656      5.75430      2.64114         0.465654      0.130125      0.317731
O       7.85762      5.83065     16.08676        -1.150213      0.300546      0.278855
O       7.82136      5.81738      7.16582        -0.692449      0.158535      0.130120
O       7.70570      5.92154     11.48076         0.580744     -0.443490      0.406163
O       7.68029      9.80847      2.81403        -0.374717     -0.192826      0.048311
O       7.82646      9.68945     15.99842        -0.900803      0.222501      0.271058
O       7.74694      9.81618      7.25710         0.282699     -0.513699      0.040826
O       7.82650      9.60431     11.75791        -0.738971      0.378417     -0.535998
O      11.62555      1.95534      2.78634         0.805312      0.245550      0.182492
O      11.74221      1.88693     15.89879        -0.342852      0.006450      0.516949
O      11.70979     13.55768      2.91578        -0.639234     -0.375182     -0.161036
O      11.72190     13.69888     16.09037         0.062679     -0.492987      0.138219
O      11.60302      1.90297      7.19162        -0.810940      0.146736      0.151067
O      11.54722     13.60467      7.34297        -0.018557      0.915457      0.246128
O      11.65603      1.98342     11.68811         0.064718     -0.798580      0.224687
O      11.62955     13.61105     11.61621         1.342566      0.354491      0.505628
O      11.65299      5.84037      2.74320         0.443865      0.485928      0.628035
O      11.67095      5.73505     15.97489         0.188296      0.808796      0.192755
O      11.65057      5.85313      7.24240         0.393338      0.190661      0.018908
O      11.62712      5.84146     11.80329         0.292902     -0.086618     -0.446520
O      11.52018      9.78535      2.91798         1.264391     -0.288871     -0.019539
O      11.72169      9.94267     16.09730        -0.192328     -0.721392      0.337257
O      11.69284      9.62452      7.19620        -0.465509      0.277306     -0.310028
O      11.68048      9.78747     11.69358        -0.286726     -0.396512     -0.312398
O       1.85476      3.81012      2.62079        -0.130540      0.801664      0.598142
O       1.93070      3.82423     16.05068         0.417434      0.167316      0.293228
O       1.90723      0.02793      2.78739        -0.291637     -0.851604      0.633823
O       2.03763     15.56621     15.92159        -0.152479      0.247443      0.202434
O      13.59123      3.85514      2.64126         0.029895      1.006701      0.504014
O      13.71032      3.93010     15.91439         0.076595     -0.664411      0.900729
O      13.49991     15.48597      2.72504         0.134347      1.835658      0.495212
O      13.79341     15.51381     16.14013        -0.708765      1.015238     -0.262734
O       2.05757      3.89906      7.23981        -0.634596     -0.356332     -0.215230
O       1.72440      0.04404      7.31396         0.487181     -0.343568     -0.174029
O      13.55224      3.83176      7.39913         0.155080      0.795321     -0.731769
O      13.43991      0.02524      7.15157         0.542301     -0.035529      1.151359
O       1.85959      3.93167     11.61211         0.093406      0.232198     -0.142674
O       1.99535     15.50880     11.65739        -0.607751      0.490363      0.097304
O      13.51362      3.90854     11.74802         0.910105      0.295993     -0.213064
O      13.65721      0.05908     11.60917        -0.244349     -1.293634      0.332041
O       1.80600      7.77599      2.89263         0.039316     -0.650005     -0.432553
O       1.80645      7.79297     16.12264         0.665956     -0.012947     -0.220150
O      13.64353      7.77128      3.01814        -0.455593     -0.141489     -0.933452
O      13.54190      7.78069     16.17756         0.644437      0.808222     -0.653564
O       1.92178      7.75821      7.21551         0.097489      0.246572     -0.235368
O      13.68316      7.77212      7.23538        -0.182265     -0.122911      0.103303
O       1.84043      7.73961     11.55961         0.072048      1.315833      0.374716
O      13.58497      7.86575     11.55901        -0.251036     -0.922070      0.549530
O       1.89204     11.58217      2.77662        -0.004107      1.589500      1.047441
O       1.85385     11.59312     16.02926         0.439839      0.611652      0.254501
O      13.66507     11.65907      3.09549        -0.567329      0.125455     -0.684575
O      13.72001     11.70981     16.15218        -0.131346      0.231708     -0.095054
O       1.83916     11.71504      7.27983         0.435984     -0.704730     -0.289874
O      13.48600     11.71870      7.21392         0.338577     -0.915987     -0.024346
O       1.78743     11.62432     11.56079         0.490297     -0.433873      0.107576
O      13.55057     11.59196     11.66745         0.400297      1.559757     -0.243450
O       5.71509      3.78939      2.95795         0.942232      1.151513     -1.470560
O       5.88318      3.81477     16.06828        -0.178543      0.798596     -0.189536
O       5.73415     15.58455      2.73470         0.390743     -0.385237      0.229036
O       5.88558     15.56280     15.94316         0.002377      0.092358     -0.063605
O       5.69903      3.84287      7.09121         0.253021      0.263482      0.327220
O       5.95360      0.05457      7.09683        -0.519296     -1.777207      0.629653
O       5.75203      3.90738     11.44593         0.314256     -0.376861      0.406205
O       5.78058     15.58725     11.65707        -0.362457     -0.072190     -0.052038
O       5.75138      7.73841      2.83502         0.507660      0.364813     -0.853724
O       5.85630      7.78121     16.19480        -0.352250     -0.190675     -0.378206
O       5.72201      7.85927      7.14032         0.589073     -1.332705      0.257926
O       5.75331      7.79382     11.70629         0.229703      0.299745     -0.416577
O       5.82140     11.73411      2.64739        -0.401911     -0.221647      0.588437
O       5.89606     11.60085     16.00439        -0.459223      0.335637      0.418263
O       5.79238     11.73263      7.27626        -0.076128      0.076183     -0.327826
O       5.84453     11.66998     11.82892        -0.099790     -0.496094     -1.097890
O       9.74430      3.97691      2.76284        -0.202129     -0.400696      0.315327
O       9.74163      3.95712     16.05429        -0.062101     -1.127570      0.017397
O       9.81833     15.55857      2.77081        -0.519667      0.644361      0.547401
O       9.73146     15.56495     16.05601        -0.150952      0.254860     -0.078768
O       9.77079      3.93336      7.14399         0.030119     -0.346429      0.145934
O       9.45756      0.01743      7.06586         0.981480     -0.116355      0.154012
O       9.74949      3.81699     11.61519        -0.828833      0.758512      0.167653
O       9.75174     15.52202     11.85674        -0.195447      0.373776     -0.670644
O       9.48250      7.87884      2.80893         0.815632     -1.077742     -0.123599
O       9.79078      7.84865     15.95725         0.186582     -0.740617      0.352143
O       9.74436      7.82953      7.17289        -0.479568     -0.465843      0.359295
O       9.84643      7.78116     11.73375        -0.758545     -0.170417     -0.320573
O       9.61976     11.76302      2.76513        -0.037931     -0.771561      0.291052
O       9.72671     11.72258     16.25401        -0.103857     -0.415583     -0.080418
O       9.72713     11.67735      7.24605        -0.227168     -0.566625      0.101533
O       9.62496     11.61876     11.63349         0.273630      0.516295     -0.076048
