  # total energy = -7881.72814678 
CRSYTAL
PRIMVEC
    15.3600000000000000    0.0000000000000000    0.0000000000000000
     0.0000000000000000   15.3600000000000000    0.0000000000000000
     0.0000000000000000    0.0000000000000000    17.440000000000000
PRESSURE
1.03973 1.14537 -2.01052 -0.355395 -0.358266 -0.023715
PRIMCOORD
320 1
Pb       3.85076      3.84842      4.26133        -0.329802     -0.341847      0.067145
Pb       3.76567      3.89283     17.38185         0.003565      0.174625     -0.049549
Pb       3.88480     15.35223      4.25128        -0.534160     -0.104128      0.193085
Pb       3.96381     15.34449      0.02673        -0.837828      0.230927     -0.071155
Pb      15.28770      3.92253      4.31071         0.159304     -0.428313     -0.213250
Pb      15.21441      3.71360     17.35285         0.226573      0.778569      0.466599
Pb      15.28150     15.35269      4.38232         0.185325      0.044481     -0.115719
Pb       0.16394      0.04382     17.38002        -0.671748     -0.759342      0.335829
Pb       3.97950      3.88019      8.59546        -0.647745     -0.058342      0.364297
Pb       3.79689     15.28100      8.69037         0.063380      0.269598      0.106844
Pb       0.15975      3.72526      8.69316         0.062792     -0.014078     -0.369156
Pb       0.14685     15.29039      8.60525        -0.447220      0.250373      0.344117
Pb       3.91468      3.94058     13.09317        -0.565677     -0.213806     -0.252126
Pb       4.02306      0.03257     13.21072        -0.499197     -0.457600     -0.456780
Pb      15.27357      3.89411     12.93806         0.150163     -0.751254      0.834508
Pb      15.31469      0.00520     13.02945         0.440064      0.105406      0.206254
Pb       3.77515      7.65238      4.34111         0.339916     -0.121154     -0.033023
Pb       3.88376      7.77234     17.42960        -0.468344     -0.188148      0.112646
Pb      15.18299      7.49198      4.30903         0.291863      0.390839     -0.017718
Pb       0.20666      7.61846     17.43047        -0.551580      0.139943      0.468311
Pb       3.76468      7.63076      8.63842         0.294461     -0.505860      0.075987
Pb      15.29660      7.72370      8.63473         0.545448      0.033351     -0.027887
Pb       3.85893      7.80350     13.09188        -0.174772     -0.124302     -0.323566
Pb      15.27798      7.74499     12.93318         0.414461     -0.600594      0.190868
Pb       3.89182     11.40858      4.38968         0.058821      0.644258     -0.027296
Pb       3.68532     11.47908      0.02081        -0.028289     -0.015517     -0.489261
Pb      15.31462     11.37733      4.33871        -0.337361      0.177244     -0.094805
Pb       0.08688     11.39311      0.09652        -0.279163      0.440591     -0.495309
Pb       3.77885     11.46750      8.65702        -0.147636      0.214090      0.250851
Pb       0.09339     11.65023      8.61756        -0.319764     -0.959927      0.317077
Pb       3.74050     11.58402     13.02509         0.646003     -0.234466      0.254951
Pb      15.13076     11.44741     12.95548         1.278994      0.344324      0.886569
Pb       7.57003      3.94958      4.23259         0.138744      0.189426      0.343906
Pb       7.68484      3.81348     17.41318        -0.274199      0.189691     -0.293234
Pb       7.55036     15.31054      4.25886         0.391395     -0.174246      0.470384
Pb       7.82493     15.25268      0.02162         0.062740      0.282055     -0.251555
Pb       7.70034      3.82027      8.64300        -0.415941     -0.144425      0.838087
Pb       7.70264      0.09882      8.69762        -0.369079     -0.596072      0.412867
Pb       7.53177      3.66956     13.00840         0.178705      0.662986     -0.080918
Pb       7.71306     15.10691     13.13941        -0.689968      0.095774     -0.587753
Pb       7.63274      7.79282      4.38344        -0.272551     -0.369317     -0.217981
Pb       7.72794      7.54375     17.36528        -0.177874      0.577357      0.717446
Pb       7.67752      7.57203      8.73218         0.010557     -0.023759     -0.280284
Pb       7.78299      7.64852     13.10791        -0.624843     -0.227677     -0.370192
Pb       7.65067     11.48799      4.29616        -0.293496      0.174249     -0.161273
Pb       7.67565     11.44321     17.31995         0.358046     -0.163703      0.467908
Pb       7.74640     11.48182      8.79945        -0.229782     -0.074221     -0.098343
Pb       7.57143     11.52268     13.06291        -0.661504      0.224805      0.042881
Pb      11.58602      3.92637      4.35459        -0.529740     -0.370172      0.418344
Pb      11.31929      3.78647     17.36482         0.139741     -0.185770     -0.453456
Pb      11.53788      0.12644      4.34542        -0.351014     -0.414406      0.256761
Pb      11.66408      0.06502     17.36082        -0.230747     -0.421012      0.438556
Pb      11.68336      3.68145      8.67597        -0.523597      0.067213      0.149019
Pb      11.51980      0.02654      8.67295        -0.067263     -0.273992     -0.303599
Pb      11.41885      3.89877     12.87503         0.359567     -0.262504      0.909762
Pb      11.43470     15.31373     13.12451         0.192094      0.125231     -0.397558
Pb      11.53608      7.65802      4.41327         0.234672      0.367299     -0.044966
Pb      11.42693      7.69844     17.32631         0.423654      0.144759      0.128426
Pb      11.49547      7.60624      8.67052        -0.478041      0.679703      0.019695
Pb      11.61454      7.66562     13.04954        -0.209762      0.016070     -0.383278
Pb      11.39933     11.56250      4.35385         0.760431      0.044909      0.000971
Pb      11.61189     11.55991     17.40525         0.036332     -0.156695      0.139336
Pb      11.37416     11.53065      8.74282         0.544714     -0.286094     -0.402244
Pb      11.43098     11.59279     13.07665         0.018510     -0.369499      0.064859
Ti       1.80148      1.93294      2.31261         0.275451     -0.207443      1.744157
Ti       1.84141      1.99908     15.40753         0.192679     -0.766308     -2.363608
Ti       1.80543     13.41245      2.44586         0.201006      0.212462     -1.661958
Ti       1.92361     13.51773     15.38246        -1.140561     -0.826191      0.966977
Ti      13.37636      1.91288      2.34562         0.055983     -0.085508     -0.148042
Ti      13.37968      1.96321     15.29828        -0.636949     -0.750200      1.257277
Ti      13.34839     13.44208      2.39405         0.462989     -0.387933     -0.617785
Ti      13.47829     13.38846     15.39715         0.382744      0.691314     -0.353715
Ti       1.88517      1.80731      6.53207        -0.044154      0.745183     -1.359506
Ti       1.90583     13.38703      6.49741         0.432371     -0.502314      1.152082
Ti      13.46772      1.86445      6.66419        -0.320341      0.188229      0.685016
Ti      13.38301     13.42370      6.65846        -1.070825     -0.702850     -1.010000
Ti       1.88422      1.91138     11.10047         0.026948     -0.755625      0.110635
Ti       1.86646     13.43644     11.12952         0.617526      0.655726      0.035998
Ti      13.34001      1.78690     11.10712         0.324127      0.871947     -2.175098
Ti      13.38962     13.39189     11.07367         0.162164      0.150839     -0.783522
Ti       1.90588      5.71126      2.35892        -0.914076      0.309181     -1.165574
Ti       1.83300      5.77782     15.37628         0.597553      0.469024      0.912662
Ti      13.28191      5.73788      2.13903         1.356988     -0.317351      3.486968
Ti      13.39834      5.76978     15.36846        -0.147782     -0.204293     -0.992003
Ti       1.83524      5.67979      6.57171         1.011826     -0.598960      0.035265
Ti      13.39992      5.71420      6.75446         0.196391     -0.379907      0.250820
Ti       1.93887      5.71641     11.02913         0.342083     -0.011748     -1.507583
Ti      13.42214      5.71314     10.94034        -0.143144     -0.181997      0.670825
Ti       1.99700      9.54494      2.41700        -1.668349     -0.238946     -0.979019
Ti       1.90622      9.62137     15.32664         0.274983     -0.363055      1.196696
Ti      13.48404      9.55733      2.36723        -1.418084      0.109760     -0.523722
Ti      13.49020      9.53862     15.40670        -0.180528      0.120656      0.210436
Ti       1.96799      9.47398      6.66464        -0.903541      0.332640      0.212107
Ti      13.42227      9.57980      6.73238        -0.641551      0.016039     -1.356967
Ti       1.93855      9.57621     11.03867         0.459307      0.537469     -1.825186
Ti      13.41540      9.58548     10.97827        -1.003088     -0.082336     -1.769272
Ti       5.74852      1.91958      2.26840        -1.019072      0.005859     -0.067074
Ti       5.69110      1.90490     15.44434         0.456505      0.117719      1.445753
Ti       5.67537     13.37032      2.26242        -0.460007      0.317051      0.863816
Ti       5.68425     13.37869     15.56689         0.808863     -0.630573     -2.954123
Ti       5.63965      1.84258      6.63404        -0.338846      0.190511      0.442148
Ti       5.72133     13.41624      6.74794        -0.606396     -0.047723     -1.700844
Ti       5.65800      1.84045     11.09497        -0.276713     -0.255951     -1.043540
Ti       5.66617     13.35103     11.02347         0.978010      0.057427      0.671319
Ti       5.67267      5.76519      2.20449         0.661870      0.519928     -0.124096
Ti       5.71991      5.81065     15.43772         0.129648     -0.964619     -0.749069
Ti       5.71743      5.71215      6.60413        -0.201059      0.673805      0.191456
Ti       5.70709      5.75760     11.09376         0.305811     -0.889188     -2.094364
Ti       5.77487      9.57740      2.31886         0.322761     -0.812017     -0.925090
Ti       5.81158      9.53304     15.38254        -1.296246      1.329122     -0.324746
Ti       5.80579      9.61335      6.77520        -0.373814     -0.455470     -1.611313
Ti       5.77098      9.50885     10.97123        -1.207059      0.907650      0.433249
Ti       9.48470      2.00441      2.44059         0.994349     -0.476424     -0.870129
Ti       9.51410      1.91386     15.25667         1.077084      0.429386      0.261367
Ti       9.51965     13.50238      2.35671         0.543359      0.054063     -1.502843
Ti       9.61916     13.44951     15.41577        -0.091813     -1.215251      0.160351
Ti       9.51037      1.89090      6.69380         0.759479     -0.538431     -0.591496
Ti       9.44835     13.39100      6.68802         1.072397      0.683400     -0.137244
Ti       9.49075      1.83830     11.09936         0.036952     -0.511440      0.007015
Ti       9.57752     13.33731     11.04536        -0.960430      1.365306      0.225484
Ti       9.56985      5.83711      2.35256        -0.554447     -0.782619     -0.671172
Ti       9.57960      5.84187     15.27339        -0.371170     -1.065634     -0.611676
Ti       9.54550      5.68316      6.76344         0.277470      0.417731     -0.651256
Ti       9.55136      5.72219     11.04434        -0.456947      0.067606     -0.371048
Ti       9.68944      9.62773      2.34643        -0.656389     -0.054518     -1.381865
Ti       9.60284      9.61123     15.38056         0.362252      0.040607      0.623027
Ti       9.51144      9.59878      6.58099         1.569623     -1.012013      1.507295
Ti       9.52080      9.54228     11.10651         0.842853      0.010855     -2.469914
O       1.91473      1.86152      0.57006        -0.287784      0.346773     -1.109264
O       1.63040      1.86439     13.57786         0.932903      0.418147      1.854320
O       1.92263     13.39120      0.53529        -0.228389      0.134258      1.531628
O       1.86953     13.46778     13.65655        -0.101434      0.113507     -0.657469
O      13.38091      1.87752      0.58370        -0.107979      0.173950     -0.299693
O      13.22755      1.89261     13.59977         0.180603     -0.176150     -1.914919
O      13.37784     13.41915      0.57867         0.004265     -0.032877      1.149790
O      13.43534     13.41523     13.56881        -0.163997     -0.413899      0.976000
O       1.71435      1.80822      4.72290         0.594741      0.214294      1.561813
O       1.88456     13.31917      4.77788         0.064410     -0.016510     -0.837657
O      13.43764      1.88208      4.92460        -0.014523     -0.205879     -0.702048
O      13.24738     13.49486      4.84950         0.397052     -0.312776      1.466403
O       1.90921      1.81466      9.31439        -0.276750      0.358941      0.142858
O       2.03204     13.43856      9.37617        -0.663907     -0.037567     -0.313463
O      13.32770      1.82218      9.21752         0.108912      0.135577      1.532613
O      13.34693     13.19173      9.29710         0.095952      0.650095      0.679676
O       1.82713      5.75059      0.55606         0.273559     -0.149986      0.570179
O       1.92633      5.82863     13.64759        -0.087527     -0.067301     -0.188675
O      13.23261      5.75338      0.47636        -0.003710     -0.168964     -2.814943
O      13.41715      5.80817     13.54014        -0.039002      0.314903      1.135489
O       1.82624      5.68815      4.77645         0.304406      0.271146      0.277042
O      13.39469      5.70070      4.98291        -0.233030      0.244086      0.105129
O       1.95155      5.59827      9.15882        -0.248562      0.117219      1.875985
O      13.52943      5.58419      9.18865         0.003041      0.314361      0.371549
O       1.86193      9.44067      0.57888         0.357461      0.763377      1.241928
O       1.93262      9.55288     13.58547        -0.244411     -0.130103     -0.906737
O      13.42426      9.63750      0.58533         0.048597     -0.172006      0.216769
O      13.43267      9.44203     13.58707         0.195489      0.216924      0.640078
O       1.98400      9.37732      4.88028        -0.076181      0.794086      0.639214
O      13.39771      9.31526      4.89770         0.131042      0.612690      1.349897
O       1.94558      9.62835      9.15695         0.089553     -0.202446      1.765256
O      13.42193      9.73341      9.17763         0.177266     -0.539159      0.928324
O       5.80958      1.83080      0.49310        -0.282917      0.166105      0.166673
O       5.68526      1.93268     13.72081         0.122492      0.086870     -1.408813
O       5.50385     13.49715      0.50665         0.569898     -0.206041     -0.618579
O       5.77952     13.21279     13.63736        -0.092925      0.694904      1.913048
O       5.48721      1.86101      4.89738         0.741649     -0.141772     -0.412175
O       5.59020     13.37355      4.88376         0.526667     -0.032616      1.081238
O       5.60266      1.79391      9.32896         0.080838      0.151060     -0.059646
O       5.73194     13.40652      9.26718        -0.171001      0.017761     -0.185848
O       5.80375      5.70309      0.42859        -0.348039      0.106592     -0.064030
O       5.79140      5.70319     13.58559        -0.478409      0.178364      1.454623
O       5.74222      5.80213      4.81339         0.143833     -0.129708      0.524469
O       5.65587      5.56951      9.21721         0.048379      0.677635      1.378818
O       5.81612      9.48427      0.52401        -0.205727      0.580042      0.879809
O       5.75399      9.56903     13.59591        -0.158097     -0.249229      0.813622
O       5.73507      9.57383      4.85108         0.176683      0.154027      1.507328
O       5.79219      9.56004      9.18716         0.075980      0.015730      0.172229
O       9.50787      2.08393      0.64700        -0.066638     -0.098573      0.104605
O       9.54868      1.81081     13.48095        -0.076245     -0.030040      0.561490
O       9.53539     13.44868      0.52576        -0.082476      0.029353      1.078324
O       9.51557     13.23458     13.59152         0.407746      0.821161      1.181013
O       9.52371      1.71243      4.93188        -0.380742      0.879452      0.717712
O       9.39751     13.41626      4.91728         0.168557     -0.193860     -0.104743
O       9.59547      1.82862      9.34351        -0.260846     -0.023889     -0.706722
O       9.53167     13.32490      9.29054         0.032606      0.034781     -0.704685
O       9.54110      5.75182      0.53676         0.325818     -0.008875      0.983907
O       9.49159      5.99757     13.48705         0.357844     -0.483162      0.150991
O       9.52281      5.53608      4.97873        -0.079852      0.600482      0.446623
O       9.55649      5.78095      9.29375        -0.277547     -0.232031     -0.433080
O       9.48620      9.67661      0.49608         0.619097     -0.504668      1.639781
O       9.64460      9.54303     13.61907        -0.181215     -0.116425     -0.665191
O       9.55279      9.57782      4.82717        -0.291885      0.132887     -0.336102
O       9.45738      9.68388      9.24862        -0.145616     -0.516075      1.438501
O       3.72310      1.97328      2.78538         0.780160     -0.600919     -0.752903
O       3.80361      1.99925     15.74872        -0.340152     -0.067676      0.124109
O       3.71263     13.36102      2.74677         1.042257      0.126303     -0.198714
O       3.78705     13.38321     15.73595         0.024115      0.202256      0.466923
O      15.25617      1.97260      2.66670         0.070527      0.216283     -0.040908
O      15.28343      2.03040     15.77607        -0.211730     -0.780685      0.128809
O      15.25229     13.34827      2.87312         0.192048     -0.223265     -0.346224
O      15.34312     13.42188     15.91613         0.163370      0.219961     -0.514616
O       3.73522      1.85106      7.08590         0.522644     -0.228410     -0.319345
O       3.79662     13.43804      7.12080        -0.142635     -0.629220     -0.314351
O      15.35215      1.76891      7.04529         0.379949      0.232498      0.367217
O       0.03418     13.40865      7.01666        -0.930519     -0.191950     -0.083004
O       3.81834      1.73162     11.57960        -0.903174      0.802352      0.084823
O       3.84058     13.39538     11.48446        -1.208948      0.314960      0.136567
O      15.24688      1.93149     11.39647        -0.106228      0.190755      0.074460
O      15.25256     13.39616     11.47907         0.348637     -0.067774     -0.221317
O       3.82503      5.63935      2.60010        -0.519685      0.299092      0.283589
O       3.78555      5.84920     15.87887         0.584418     -0.886548     -0.566609
O      15.31192      5.67967      2.68462        -0.997328      0.327935     -0.239454
O      15.33435      5.65667     15.83544        -1.232738      0.592235     -0.382515
O       3.78086      5.74651      7.04194         0.534476     -0.158431     -0.362989
O       0.04413      5.71677      6.98432        -1.343180      0.035789      0.438498
O       3.76235      5.77877     11.51271         0.122235     -0.508040      0.127363
O       0.08542      5.67090     11.53093        -1.363400      1.021863     -1.061867
O       3.78276      9.58211      2.82592         1.150622      0.537136     -0.455080
O       3.83406      9.50421     15.85059        -0.039712      0.511703     -0.370409
O      15.24635      9.51786      2.81896         1.641107      0.055181     -0.036285
O       0.02804      9.54322     15.90305        -0.726049      0.030669     -0.694698
O       3.91883      9.56743      7.10979        -1.228492      0.163206     -0.309049
O       0.04397      9.61462      7.08365        -0.553848     -0.648781     -0.127329
O       3.83767      9.73395     11.46583        -0.724111     -0.966919     -0.239803
O      15.32436      9.51635     11.33643         0.141441      0.325392      0.213609
O       7.57020      1.89761      2.74494        -0.195450      0.239140      0.201104
O       7.72385      1.90948     15.72773        -0.126865     -0.122458      0.114230
O       7.58659     13.41578      2.65625        -0.074848      0.135326      0.061418
O       7.64579     13.49348     15.84172         0.488920     -0.369044      0.044997
O       7.56980      1.84190      7.14260         0.821340      0.686813     -0.545521
O       7.58676     13.52365      7.08878         0.957337     -0.662437      0.163235
O       7.49559      1.90250     11.41260         1.388171      0.149391      0.404409
O       7.66138     13.41583     11.52813        -0.492243     -1.082749     -0.308025
O       7.55625      5.74315      2.53568         1.152655      0.217756      0.860825
O       7.70668      5.77242     15.75295        -0.777520     -0.061641      0.025215
O       7.62663      5.59477      7.20549        -0.223109      0.578212     -0.688909
O       7.58985      5.67788     11.39274         0.262040      0.124836      0.196131
O       7.63571      9.49972      2.77739         0.338510      0.336373     -0.121976
O       7.63403      9.56413     15.73320         1.145007      0.133433      0.036655
O       7.67234      9.57243      7.04939         0.135440      0.073779     -0.073010
O       7.55985      9.61602     11.48369         1.255745     -0.366559     -0.204094
O      11.37689      1.88158      2.76875         0.722063     -0.087595      0.016270
O      11.49352      1.86331     15.92490        -0.817656      0.274364     -0.698038
O      11.42848     13.50878      2.76272        -0.115899     -0.148882     -0.021781
O      11.56415     13.39841     15.84966        -0.794976     -0.333176     -0.559807
O      11.54046      1.94310      6.97049        -0.981901     -0.719805      0.502902
O      11.41722     13.39151      7.12422         0.580645      0.180457     -0.194692
O      11.38336      1.65693     11.41041         0.844116      0.740456      0.281824
O      11.46324     13.46861     11.53175         0.428186     -0.241142     -0.137407
O      11.48034      5.67017      2.76691        -0.993359      0.365393     -0.365179
O      11.37833      5.84191     15.64340         1.874463      0.259876      0.424807
O      11.51084      5.76015      7.24143        -0.130818     -0.239949     -0.660003
O      11.45488      5.76762     11.37492         1.030779      0.062399     -0.051816
O      11.55065      9.56546      2.81554        -1.447971     -0.119439     -0.293040
O      11.55004      9.54894     15.77444        -0.288702      0.104989     -0.028383
O      11.48377      9.44572      6.99749        -0.593669     -0.120849      0.173163
O      11.45669      9.48058     11.26468         0.212596      0.189071      0.682538
O       1.84506      3.85019      2.72489         0.084200     -0.487478     -0.065913
O       1.74067      3.85233     15.79370         1.250373      0.085449      0.146056
O       1.68766     15.34522      2.73055         0.575913     -0.416429     -0.417752
O       1.89938      0.06338     15.80105        -0.003695     -0.305603     -0.025890
O      13.26490      3.78838      2.72684         0.501553      0.676200     -0.319173
O      13.21478      3.82904     15.59534         0.553912      0.939385      0.767893
O      13.51430      0.00116      2.83794        -0.941398     -0.065460     -0.554810
O      13.32934     15.34885     15.69078         0.654392     -0.098547      0.147696
O       1.84149      3.72042      6.82841        -0.024863      0.265773      0.545671
O       1.90437     15.24223      6.93389        -0.094293      0.593613      0.292205
O      13.39378      3.77898      6.99058         0.537413      0.214510      0.462812
O      13.46433     15.26483      7.12812        -0.410827      0.208278     -0.113469
O       1.85321      3.80924     11.50472         0.667122      0.192946     -0.291462
O       1.76805      0.03324     11.45912         0.047673     -0.912793      0.149865
O      13.33148      3.82785     11.43526        -0.094617     -0.027195     -0.304441
O      13.43681     15.33819     11.44207        -0.309682     -0.934185      0.006278
O       1.89281      7.68849      2.74964         0.082135     -1.000200     -0.000727
O       1.91414      7.71989     15.91614        -0.272990     -0.949714     -0.842714
O      13.28799      7.56641      2.79133         0.394478      0.127662     -0.668948
O      13.41804      7.64558     15.81963         0.026138     -0.068601     -0.197622
O       1.91252      7.57384      7.06075         0.032355      1.020374      0.027038
O      13.41574      7.60987      7.19280         0.484430      0.145441      0.044000
O       2.02305      7.72230     11.35507        -0.583306     -0.487637      0.018303
O      13.41901      7.64080     11.29088         0.270984     -0.402379      0.088232
O       1.83747     11.46107      2.68918        -0.264673     -0.314551      0.306113
O       1.86915     11.44924     15.79258         0.326409      0.762357      0.209898
O      13.31820     11.46714      2.80607         0.228044      0.487015      0.060990
O      13.46846     11.47924     15.83950        -0.040172     -0.259986     -0.426603
O       1.81076     11.46227      7.05189         1.296290      0.205813     -0.568795
O      13.28503     11.44598      6.93265         0.681462      0.637843      0.010548
O       1.81861     11.56314     11.42222        -0.043247     -0.850285      0.238600
O      13.38023     11.42987     11.56882        -0.662048      0.433654     -0.665160
O       5.70831      3.82912      2.62036         0.025573     -0.431402      0.084775
O       5.79433      3.82216     15.85220        -0.273812      0.491742     -0.219684
O       5.68254     15.33841      2.74565        -0.215008     -0.034843     -0.620259
O       5.71497     15.31998     15.76151        -0.298305      0.423945      0.235580
O       5.66615      3.82532      6.87224         0.091486     -0.761149      0.428640
O       5.73361     15.32089      7.09653        -0.390473      0.366715     -0.106083
O       5.60399      3.85468     11.39141        -0.113885     -1.072680      0.847023
O       5.71041     15.23434     11.58268         0.286372      0.677842     -0.050635
O       5.54895      7.70179      2.60471         0.473813     -0.722071      0.305339
O       5.76517      7.68864     15.85970         0.117059     -0.976954     -0.537170
O       5.75346      7.64504      7.09055         0.282602     -0.139690     -0.159146
O       5.59487      7.60003     11.41826         0.474550      1.280563     -0.175783
O       5.82911     11.52192      2.58914        -0.788428     -0.429090      0.309293
O       5.73750     11.49159     15.81862        -0.045459     -0.251815      0.426789
O       5.82641     11.53061      7.08165        -0.347296     -0.576529      0.068576
O       5.62755     11.42895     11.43003         0.947015      0.629107     -0.272853
O       9.51665      3.87642      2.86829        -0.175733      0.058489     -0.444237
O       9.71223      3.86453     15.50025        -0.662314     -0.784389      0.480161
O       9.41932      0.02090      2.71248         0.039365     -0.357002     -0.057673
O       9.65371     15.26295     15.84175        -0.338313      1.223749     -0.596957
O       9.62801      3.84500      7.26503        -0.298820     -1.619628     -0.510427
O       9.57688     15.29220      7.10659        -0.096978      1.088410      0.183073
O       9.60182      3.77201     11.43647        -0.534003      0.058104     -0.029737
O       9.38925     15.25252     11.42753         0.456600      0.614343      0.349782
O       9.58551      7.69155      2.79002        -0.015370     -0.561131     -0.307530
O       9.56271      7.69113     15.82660        -0.191599      0.499066     -0.203562
O       9.43643      7.58053      7.03872         0.260533      0.743857      0.107837
O       9.49657      7.61522     11.28762        -0.414601      1.126638      0.667002
O       9.57073     11.50150      2.67086        -0.153635      0.151256      0.470827
O       9.58848     11.46982     15.77133        -0.112856      0.510258      0.020874
O       9.64912     11.43547      7.07537        -0.962997      0.572870     -0.381099
O       9.62454     11.49275     11.31325        -0.090424     -0.913364      0.864926
