  # total energy = -7877.28637490 
CRSYTAL
PRIMVEC
    15.2000000000000000    0.0000000000000000    0.0000000000000000
     0.0000000000000000   15.2000000000000000    0.0000000000000000
     0.0000000000000000    0.0000000000000000    17.000000000000000
PRESSURE
8.19631 7.67184 0.357719 -0.038539 -0.196564 -0.00782
PRIMCOORD
320 1
Pb       3.93137      3.70651      4.18280        -0.524669      0.152198      0.532186
Pb       3.56673      3.64500     16.95026         0.349305      0.537156     -0.127720
Pb       4.01130     14.92744      4.12336        -0.762160      0.656931      1.017433
Pb       3.68154     15.13226     16.96070         0.075544      0.318696      0.221631
Pb      15.17569      3.61312      4.26680        -0.422332     -0.077441     -0.397172
Pb      15.04689      3.88968     16.95763         0.735014     -0.540853      0.534965
Pb      15.16773     14.90587      4.10441        -0.450523      0.743892      0.770948
Pb      15.10024      0.03397      0.05610         0.131146      0.029638      0.015625
Pb       3.48693      3.84363      8.53367         1.048367      0.184987      0.296163
Pb       3.78035      0.16063      8.19835         0.130374     -1.086703      1.999773
Pb      15.06247      3.82829      8.33557         0.301645     -0.318308      1.000145
Pb       0.17544      0.12257      8.30843        -0.540909     -0.518206      0.605365
Pb       3.74725      3.76400     12.81896        -0.202724      0.216697     -0.566547
Pb       3.80091     15.17920     12.69233        -0.406336     -0.035749     -0.537979
Pb      15.13152      3.80000     12.81445        -0.163904     -0.214661     -0.780586
Pb      15.05552     15.10929     12.61363         0.531801      0.356041     -0.047559
Pb       3.90066      7.42880      4.13757        -0.788533      0.745733      0.614568
Pb       3.66573      7.46904     16.99070         0.212358      0.155538     -0.583362
Pb       0.00788      7.34888      4.24196        -0.232068      0.921493     -0.153856
Pb      15.13821      7.54604      0.20677         0.403997      0.386232     -0.383576
Pb       3.76073      7.48746      8.58788        -0.264102      0.218122     -0.044889
Pb       0.06744      7.69519      8.48177        -0.090857     -0.195723      0.528623
Pb       3.77823      7.76576     12.90893         0.512902      0.337332     -0.309176
Pb      15.17609      7.77996     12.92201         0.050321      0.012233     -1.194374
Pb       4.09065     11.31885      4.13282        -0.629220     -0.083220      0.605931
Pb       3.62650     11.38613     16.66253         0.436968     -0.191579      1.488661
Pb       0.07047     11.24303      4.24762        -0.323017      0.173546     -0.037188
Pb      15.04498     11.36235      0.03223         0.226630      0.158963      0.366194
Pb       3.81987     11.39105      8.36876        -0.029124     -0.154187      0.489824
Pb       0.10790     11.37082      8.42097         0.050072      0.101054      0.015192
Pb       3.91028     11.55578     12.63861        -0.552943     -0.793374      0.079908
Pb       0.02115     11.61879     12.64712         0.403143     -0.492569     -0.053026
Pb       7.63361      3.87674      4.32998        -0.007842     -0.516682      0.507102
Pb       7.59064      3.78403     16.94031        -0.039751     -0.365984     -0.289730
Pb       7.58243      0.03232      4.23861        -0.142881     -0.443584      0.563250
Pb       7.49408      0.00191     16.93498         0.282336      0.321776     -0.348336
Pb       7.33001      3.78458      8.66061         0.492991      0.004621     -0.231837
Pb       7.51275      0.05697      8.60261         0.412362     -0.248346     -0.043781
Pb       7.61006      3.67781     12.68157         0.507670      0.680555     -0.094596
Pb       7.56691     15.12386     12.72696         0.144941      0.135875     -0.294667
Pb       7.37449      7.53446      4.20713         0.834348      0.643796      0.285738
Pb       7.75003      7.40362      0.00401        -0.566385      0.838066      0.143903
Pb       7.56704      7.50496      8.62804         0.050334      0.126005      0.256616
Pb       7.73525      7.61292     12.79986        -0.749352      0.017594     -0.176909
Pb       7.67695     11.48717      4.19662        -0.393896     -0.016095      0.609173
Pb       7.45357     11.29043     16.98508         0.752113      0.426405     -0.384246
Pb       7.65345     11.24308      8.47250        -0.078511      0.779474      0.647689
Pb       7.71825     11.47160     12.81684        -0.369618     -0.800962     -0.262584
Pb      11.34530      3.78856      4.37722        -0.009455     -0.605896      0.126129
Pb      11.36792      3.93835     16.93510        -0.303174     -0.582657     -0.012365
Pb      11.27440     15.18576      4.28924         0.349528     -0.119022      0.199955
Pb      11.26965      0.08906      0.04424        -0.053150     -0.094963     -0.269948
Pb      11.33121      3.77684      8.48618        -0.035150     -0.348830      0.257152
Pb      11.47802     15.13530      8.66487        -0.454384      0.261397     -0.918438
Pb      11.47474      3.79071     12.61956        -0.630583      0.174183      0.154776
Pb      11.33030      0.01802     12.71590         0.412941     -0.055243      0.483145
Pb      11.31603      7.38801      4.34322         0.276862      0.889683     -0.105374
Pb      11.43094      7.62737      0.12117        -0.387225     -0.254636     -0.535120
Pb      11.51466      7.67905      8.44190        -0.690528     -0.146248      0.321949
Pb      11.51573      7.73991     12.72473        -0.564629     -0.804581     -0.029430
Pb      11.41156     11.51290      4.28764         0.388278     -0.177478      0.128100
Pb      11.33998     11.19766      0.11845        -0.093788      0.871442     -0.264871
Pb      11.42200     11.30474      8.42524        -0.190439      0.290035     -0.050629
Pb      11.49953     11.36616     12.88773        -0.414437      0.443704     -0.273725
Ti       1.92154      1.84654      2.28516        -1.033356     -0.483241     -0.302533
Ti       1.81273      1.87376     14.93299        -0.346688     -0.188204     -1.152635
Ti       1.86631     13.20903      2.25843        -0.140247     -0.101188     -0.865535
Ti       1.77601     13.34832     14.99588         0.518731      0.176413     -1.050465
Ti      13.22174      1.89637      2.20552         0.243164     -0.328015      0.970465
Ti      13.29342      1.92876     15.03722        -1.313254     -0.423480     -0.477730
Ti      13.15978     13.30681      2.19338         0.906467     -0.831498     -0.347942
Ti      13.27445     13.37563     15.05266        -1.690951     -0.222380     -0.560493
Ti       1.90570      1.91306      6.30838        -0.364903     -0.328103     -0.511270
Ti       1.98579     13.26953      6.39011        -0.189928     -0.507710     -0.533552
Ti      13.27755      1.82970      6.44297        -0.864358     -0.159839     -0.683348
Ti      13.37508     13.29971      6.63700        -1.278467     -0.034290     -1.712536
Ti       1.85901      1.96839     10.78907        -0.632266     -0.408492      0.181576
Ti       1.96062     13.35080     10.58120        -0.139647     -0.710182     -0.168919
Ti      13.28524      1.87888     10.68280        -0.600022      0.818843     -1.249404
Ti      13.26369     13.30063     10.62654         0.705809     -0.130011     -0.832131
Ti       1.90332      5.62321      2.26537        -0.583205      0.484383     -1.083014
Ti       1.73993      5.76315     14.89269         2.144490      0.004669      1.155270
Ti      13.27756      5.59530      2.34253        -0.072766      0.064971      0.136656
Ti      13.29065      5.75800     15.00865        -1.114792     -0.063695     -0.011117
Ti       1.82032      5.68188      6.45399         1.911012      0.454359     -0.508885
Ti      13.29699      5.70212      6.57644        -1.107697      0.020284     -1.357364
Ti       1.84276      5.78572     10.90219        -0.179092     -1.304575     -1.365053
Ti      13.29142      5.71941     10.69323         0.335593      0.140882     -1.074303
Ti       1.96815      9.47982      2.20917        -0.098505     -0.347865     -0.135912
Ti       1.81190      9.59792     14.92244         0.290843     -1.331758     -1.099161
Ti      13.28342      9.42141      2.23577        -0.385193      0.486678      0.309167
Ti      13.32204      9.50096     14.97373        -0.278957      0.316865      1.736753
Ti       2.00353      9.40185      6.36991        -0.568955      0.442032      0.014366
Ti      13.39103      9.49426      6.48086        -0.884889      0.040962     -1.103214
Ti       1.86545      9.55335     10.75956         0.680497      0.582131     -0.281123
Ti      13.27771      9.57992     10.67886         1.035363     -0.763963     -1.508074
Ti       5.72884      1.92243      2.21651        -0.926660     -0.980349     -1.197310
Ti       5.59935      1.99788     14.87292         1.666570     -0.932117      0.047986
Ti       5.65245     13.27001      2.00981         0.565263      0.094084      1.361256
Ti       5.62391     13.37353     14.93769         1.120490     -0.672262      0.335751
Ti       5.73637      1.89528      6.54285         0.114019      0.611742     -0.318189
Ti       5.77841     13.26833      6.59516         0.164308     -0.295124     -1.197065
Ti       5.69589      1.86535     10.85658        -0.550322      0.171191     -1.542897
Ti       5.77789     13.23571     10.63409        -0.312813      0.747103     -0.809103
Ti       5.69046      5.64328      2.11595        -0.488589      0.572292     -1.211646
Ti       5.63449      5.70350     14.86937        -0.277903      0.804255     -0.115156
Ti       5.66635      5.71646      6.56002        -0.738099     -1.339018      0.354650
Ti       5.59259      5.71180     10.78076         1.223579      0.126999     -0.615556
Ti       5.73803      9.51156      2.07892        -0.163665     -0.830203      0.521980
Ti       5.71583      9.49228     15.06432         0.004052     -0.681117     -1.451216
Ti       5.73320      9.37072      6.58758         0.238033      2.703444     -1.431708
Ti       5.71880      9.49286     10.83251        -0.079376     -0.550010     -1.323551
Ti       9.41142      1.89587      2.28118         0.692321     -0.445886     -1.607377
Ti       9.47287      1.91156     14.96092        -0.100335     -0.335558     -0.396665
Ti       9.40868     13.32153      2.19623         0.046733      0.051310     -0.651112
Ti       9.43669     13.27560     14.98345         0.829377     -0.182686      0.056789
Ti       9.50013      1.85269      6.64161        -0.527780      0.050151     -0.486261
Ti       9.53460     13.31051      6.63492        -0.034674      0.158639     -0.170944
Ti       9.53722      1.81553     10.73844        -0.486584      1.574690     -0.847082
Ti       9.59780     13.26196     10.71267        -1.255946     -0.518369     -1.370916
Ti       9.43323      5.69175      2.34490         0.645272      0.081383     -1.136834
Ti       9.42562      5.67389     14.87641         0.908706      0.166807     -1.514481
Ti       9.44988      5.72072      6.68236        -0.527695     -0.655726     -0.492582
Ti       9.47461      5.74975     10.71165        -0.614482     -0.910433     -0.463093
Ti       9.48194      9.53830      2.35689         0.169911     -0.744192     -1.156663
Ti       9.52412      9.49761     15.10616        -1.078222     -0.331528     -0.928786
Ti       9.45852      9.46846      6.49159         1.399475      0.336067     -0.784958
Ti       9.55393      9.47247     10.75833        -1.199830      0.455154     -0.710932
O       1.98531      1.81066      0.45518        -0.402605      0.073121     -0.126096
O       1.79073      1.92836     13.10783        -0.068261     -0.819415      1.317380
O       1.91352     13.16617      0.40124        -0.190382      0.294668      0.594655
O       1.77621     13.36509     13.18975         0.028928      0.010046      0.462970
O      13.16621      1.98564      0.42408         0.268161     -0.042374      0.107911
O      13.25079      1.85393     13.24251         0.006363      0.056878     -0.170319
O      13.26087     13.21554      0.38457        -0.006915      0.240391      0.252892
O      13.17547     13.40875     13.18384         0.565111     -0.116909      0.773579
O       1.82535      1.93859      4.53368         0.267549      0.071734      0.312096
O       1.91590     13.28060      4.58400        -0.225300     -0.292760      0.552227
O      13.28308      1.80899      4.63170        -0.248725      0.065853      0.697668
O      13.27496     13.32041      4.76464        -0.040507     -0.425056      0.078022
O       1.83239      2.07388      8.97902        -0.102450     -0.352465      0.051226
O       1.95886     13.21086      8.81306        -0.086874      0.468581     -0.356483
O      13.08177      1.95835      8.86940         1.081691     -0.059019      0.673612
O      13.27500     13.22484      8.83246         0.066283      0.035910      0.375926
O       1.74486      5.79399      0.43118         0.596261     -0.725765      0.372566
O       1.85476      5.80632     13.12652        -0.442125     -0.351130     -0.335165
O      13.23002      5.65102      0.53025         0.112114     -0.323214     -0.299028
O      13.35160      5.70077     13.26367         0.153475      0.371979     -0.919672
O       1.87620      5.69908      4.63787        -0.040047     -0.094153      0.444602
O      13.27487      5.75544      4.69177         0.062274     -0.119136      1.009051
O       1.85390      5.66228      8.99918         0.007951      0.038586      0.947694
O      13.33364      5.71563      8.85742         0.029558     -0.182731      0.474345
O       1.90746      9.53495      0.39036        -0.188365     -0.065027      0.557188
O       1.90551      9.67103     13.05018        -0.703640     -0.790073      1.622887
O      13.24782      9.46169      0.29859        -0.259642      0.206716      1.717198
O      13.20983      9.50316     13.21428         0.227595     -0.183394     -1.100082
O       2.04400      9.43281      4.57734        -0.470462     -0.224984      0.657137
O      13.35297      9.43683      4.66955         0.011645      0.001429      0.075731
O       1.97184      9.46036      8.95664        -0.527900      0.221394      0.361764
O      13.28553      9.63503      8.80423         0.187670     -0.672556      1.897809
O       5.64088      1.96213      0.40191         0.100253      0.013290      0.606784
O       5.71052      1.87059     13.04307        -0.311138      0.065720      0.845837
O       5.54501     13.34412      0.29015         0.263505     -0.097842     -1.184035
O       5.85214     13.25440     13.16505        -0.422487      0.489822     -0.402723
O       5.71621      1.79926      4.74805        -0.173240      0.557722     -0.102611
O       5.73799     13.33846      4.73480        -0.048375     -0.412186     -0.017704
O       5.61498      1.84604      8.99551         0.278516      0.089131      0.591362
O       5.67426     13.33276      8.83596         0.096739     -0.217261      0.622172
O       5.68857      5.70190      0.29394        -0.022080     -0.379284      1.679484
O       5.68912      5.67487     13.04021        -0.232394      0.131401      1.079948
O       5.45765      5.61654      4.74601         1.027182      0.205614     -0.246128
O       5.61129      5.75825      8.87458         0.118509     -0.108741      1.042096
O       5.74748      9.45299      0.32736        -0.335442      0.117280     -0.699409
O       5.71221      9.45543     13.22385        -0.439337      0.015689      0.371771
O       5.82046      9.48889      4.72063        -0.261557     -0.160367      0.964008
O       5.83800      9.56371      8.96850        -0.729534     -0.402715      0.704916
O       9.41098      1.87272      0.38313        -0.126008     -0.001285      1.436131
O       9.52378      1.97917     13.15352        -0.025589     -0.291562      0.320259
O       9.53039     13.47744      0.44566        -0.242030     -0.536598     -0.646224
O       9.46979     13.16501     13.12649         0.054895      0.199959      0.443485
O       9.31129      1.75192      4.78061         0.582216      0.477883      0.277716
O       9.46674     13.31140      4.81305         0.113355     -0.191017     -0.715876
O       9.56911      1.82483      8.94328        -0.143110     -0.057503      0.165506
O       9.60126     13.28972      8.90929        -0.153664      0.099155      0.683702
O       9.43504      5.68219      0.50653         0.284223     -0.376765      0.933098
O       9.35060      5.66372     13.00720         0.489014      0.093516      1.866679
O       9.27767      5.57430      4.81970         0.863030      0.309847     -0.450384
O       9.38963      5.91415      8.80976         0.443864     -0.732081      1.679264
O       9.54477      9.53048      0.44777         0.196913     -0.147862      0.800389
O       9.62579      9.57499     13.26568        -0.291401     -0.216951      0.197498
O       9.23820      9.52466      4.70137         0.684218      0.002362     -0.423603
O       9.52057      9.40058      8.95912         0.021069      0.040523      0.582442
O       3.75958      1.79333      2.43796         0.978957      0.391894      0.763254
O       3.75934      2.01015     15.13348        -0.575115     -0.289652      0.431985
O       3.79482     13.22605      2.48202         0.097716     -0.055857      0.157094
O       3.74322     13.19587     15.19669        -0.485524      0.479338     -0.164909
O      15.12490      1.88828      2.53005         0.142582     -0.120484     -0.197467
O      15.11189      1.77933     15.40018         0.834012     -0.055005      0.077928
O      15.10179     13.08061      2.56932         0.334148      0.666080     -0.193774
O      15.16318     13.40132     15.36094        -0.761149      0.420270      0.176564
O       3.73931      1.91931      6.74905         0.339984      0.426627     -0.260518
O       3.85629     13.36981      6.65503        -1.394408     -0.239335      0.477364
O      15.17363      1.87546      6.71645         1.097480      0.471518      0.242164
O       0.00693     13.31454      6.85894         1.433869     -0.018204     -0.061708
O       3.69658      1.97781     11.10053         1.201262     -0.242857      0.350812
O       3.84699     13.20526     10.95394         0.026898      0.313773      0.512027
O      15.08948      1.77137     11.06575         1.047946      0.198430      0.102455
O      15.14263     13.33672     10.91144         0.222706      0.299364      0.612388
O       3.78678      5.71893      2.52411         0.480579     -0.748134     -0.200533
O       3.72007      5.59901     15.26262        -0.328452     -0.094249     -0.085581
O       0.00355      5.61088      2.65308        -0.886059     -0.181904     -0.152379
O      15.15048      5.78198     15.48379        -0.047273     -0.231648     -0.461973
O       3.74798      5.77637      6.78247        -0.693888     -0.119391      0.462190
O      15.16994      5.73568      6.79318         0.000033     -0.241001      0.051892
O       3.79468      5.42856     11.00237        -1.375777      0.282621      0.393993
O      15.15368      5.58424     11.06096         0.377113      0.987671      0.425135
O       3.85748      9.42858      2.48981        -0.473026      0.359114     -0.036078
O       3.65689      9.43284     15.25163         0.831124      0.689621      0.033408
O      15.14771      9.39507      2.43962         0.254578      0.239984      0.259793
O      15.16431      9.22799     15.31082         0.216122      0.720336     -0.288060
O       3.78778      9.41098      6.87825         0.547641      0.167756     -0.193198
O       0.06764      9.47722      6.78214         0.279824     -0.267064      0.048581
O       3.72417      9.65133     11.11842         1.290850     -0.290382      0.154795
O      15.18451      9.49679     11.04211        -0.409674     -0.179379      0.321584
O       7.52967      1.89302      2.58385        -0.011883     -0.263014      0.068412
O       7.52216      1.88421     15.28293         0.078630     -0.232622      0.091718
O       7.53907     13.18442      2.40936        -0.447794      0.163579      0.046053
O       7.54744     13.28036     15.36932        -0.031346      0.546655     -0.001834
O       7.56482      1.97222      6.92317        -0.460919     -0.521626      0.271835
O       7.59313     13.13498      6.81611         0.263677      0.598605      0.410135
O       7.63445      1.75792     11.01305        -0.488365     -0.093426      0.302193
O       7.65417     13.48659     10.90261        -0.209774     -0.444652      0.606757
O       7.52648      5.69188      2.57681        -0.070353     -0.119609      0.086132
O       7.58856      5.84876     15.28031        -0.495912     -0.572148     -0.183642
O       7.53796      5.73434      6.84796        -0.285842      0.053303      0.107441
O       7.52079      5.85212     10.93759         1.056633     -0.149298      0.058673
O       7.61868      9.51024      2.46101        -1.076165     -0.407692      0.306032
O       7.60438      9.39128     15.33029        -0.572094     -0.019512      0.157259
O       7.70421      9.55151      6.94396        -2.534615     -0.449020     -0.167792
O       7.57164      9.41895     11.20058         0.682466      0.033643     -0.216897
O      11.30549      1.84814      2.64208        -0.510323     -0.176880     -0.127467
O      11.32188      1.98381     15.41411        -0.031956      0.212475     -0.271360
O      11.33092     13.24020      2.56502        -0.162403      0.268608      0.399161
O      11.34131     13.22161     15.27229         0.371519     -0.373482      0.122154
O      11.37313      1.83022      6.88117         0.051821      0.006300     -0.619366
O      11.44611     13.38699      6.79658        -0.285211     -0.428663      0.356438
O      11.37014      2.02100     11.09930         0.858938     -0.375685      0.349315
O      11.42880     13.32139     10.93356         0.066119     -0.558402      0.874521
O      11.37749      5.51574      2.81603        -1.298224      0.715979     -0.680301
O      11.39933      5.64382     15.25695        -0.567667     -0.274339      0.285241
O      11.36728      5.60764      6.87112         0.251482      0.608693     -0.346063
O      11.38483      5.62541     10.94647         0.131126      0.471307      0.353640
O      11.34105      9.35279      2.69007         0.630923      0.351430     -0.252028
O      11.33158      9.53612     15.33112         1.974055      0.256109      0.326226
O      11.42188      9.42906      6.80781        -0.476411      0.454949     -0.146813
O      11.41898      9.45578     11.06107         0.241308      0.429072      0.246396
O       1.84996      3.75908      2.45705         0.473450     -0.371649      0.300401
O       1.76314      3.69196     15.23092        -0.358603      1.642803      0.470829
O       1.85415     15.06915      2.66484        -0.132838      0.513744     -0.983501
O       1.84725      0.00223     15.43841         0.465788      0.000014     -0.275048
O      13.14620      3.71612      2.72894         0.664427      0.227318     -0.232464
O      13.37314      3.80131     15.32345        -0.217432      0.578030      0.215943
O      13.22043     15.14943      2.54388         0.157881      0.110428     -0.362809
O      13.06720      0.06334     15.46839         0.861890     -1.002610     -0.177017
O       1.89960      3.79549      6.79185        -0.545387      0.101969     -0.298088
O       1.95283     15.18365      6.72254        -0.782804      0.951993     -0.131025
O      13.23200      3.74968      6.70937         0.433637      0.763354      0.271216
O      13.37730      0.00595      6.85135        -0.106518     -0.068272      0.410523
O       1.75293      3.77187     11.30916         0.244114      0.343034     -0.475709
O       1.94427     15.12787     11.05824        -0.144886      1.527315      0.132227
O      13.33501      3.80671     10.98433        -0.152830     -0.013776      0.645470
O      13.16214      0.01956     10.87525        -0.038152     -0.752843      0.667204
O       1.87135      7.52357      2.49055        -0.008241      0.957660      0.270800
O       1.89638      7.58438     15.26056        -0.084943     -0.221784     -0.294550
O      13.23137      7.45403      2.53781        -0.032560      1.115878      0.066857
O      13.20285      7.63071     15.37844        -0.248900     -0.646565     -0.185407
O       1.84677      7.54970      7.03635         0.178919      0.224200     -1.257064
O      13.23734      7.60138      6.87698         0.634245     -0.559208     -0.245689
O       1.96106      7.60302     11.14668        -0.167007      0.220761     -0.038461
O      13.28639      7.66305     11.03310         0.082588     -0.732716      0.328306
O       1.86424     11.35450      2.69751         0.368125     -0.799693     -0.526917
O       1.69131     11.40967     15.22080         0.002121      0.202912      0.379545
O      13.17045     11.31474      2.49416        -0.096383     -0.305688      0.124742
O      13.51122     11.41490     15.23710        -0.756573     -0.312937     -0.049624
O       1.86061     11.38108      6.68541         0.480146     -0.533509      0.117519
O      13.32644     11.33975      6.83898        -0.041628      0.770664     -0.293040
O       1.80830     11.50661     11.01320        -0.168184     -0.725546      0.275503
O      13.33586     11.38500     11.12356        -0.547238      0.697548      0.009345
O       5.68986      3.77864      2.62987        -0.279879      0.267795     -0.340559
O       5.75277      3.83474     15.18522        -0.011207     -0.239841      0.184752
O       5.70953     15.12311      2.60127         0.170643      0.562442     -0.939487
O       5.56371      0.04116     15.31277         0.062199      0.092730     -0.297815
O       5.68396      3.85613      6.97333        -0.378989     -0.880462     -0.584928
O       5.70865      0.01190      6.93146         0.355991      0.461320     -0.424492
O       5.86385      3.73346     11.08348        -0.381376      0.401177     -0.263060
O       5.65268     15.15288     11.19341        -0.234796     -0.062463     -0.198470
O       5.62428      7.57678      2.60484         0.772205     -0.520449     -0.600901
O       5.54307      7.57741     15.31443         0.007865     -0.114213     -0.284562
O       5.65890      7.62803      6.87124         0.383261     -1.137785      0.006784
O       5.55417      7.57586     11.08379        -0.523952      0.565786      0.027580
O       5.69848     11.36757      2.35878        -0.173038      0.038505      0.387751
O       5.76198     11.43626     15.13443        -0.449793     -0.946552      0.966403
O       5.59613     11.39431      6.82323         0.223992     -0.903332      0.061395
O       5.78488     11.38343     11.04766         0.137398      0.702018      0.371125
O       9.31410      3.72227      2.60165         0.434796      0.898943      0.291465
O       9.33338      3.81540     15.25795         0.236610      0.464514      0.365452
O       9.28768     15.13966      2.59643         0.758194      1.096945      0.195925
O       9.46402     15.16296     15.15285         0.101236      0.514786      0.413560
O       9.43094      3.72407      6.97615         0.218073      0.882792     -0.166558
O       9.43085     15.15125      7.00249        -0.310211      0.681716     -0.169008
O       9.45234      3.81170     11.00699        -0.377226      0.505555     -0.085582
O       9.66057     15.19547     11.06849        -0.268604     -0.651987      0.288288
O       9.46734      7.57012      2.56312        -0.124364     -0.848341      0.432368
O       9.54748      7.50853     15.48554         0.293226      0.654864     -0.546254
O       9.46035      7.61065      6.83296         0.344798     -0.335698     -0.349590
O       9.52061      7.62854     11.24452         0.338913     -0.491470     -0.386734
O       9.43688     11.41871      2.55770         0.646999     -0.271687      0.271613
O       9.36148     11.36773     15.41913         0.188113      0.252495     -0.014272
O       9.50854     11.42505      6.95629         0.633017     -1.065798     -0.393347
O       9.49451     11.35279     10.95405        -0.109832      0.467382      0.666083
