  # total energy = -7878.97983032 
CRSYTAL
PRIMVEC
    15.6000000000000000    0.0000000000000000    0.0000000000000000
     0.0000000000000000   15.6000000000000000    0.0000000000000000
     0.0000000000000000    0.0000000000000000    17.640000000000000
PRESSURE
-4.87033 -4.99828 -7.93885 0.007326 -0.227641 -0.024666
PRIMCOORD
320 1
Pb       3.79586      3.77684      4.38138         0.368411      0.643908      0.378849
Pb       3.88360      3.90864     17.58617         0.019987     -0.234336      0.303881
Pb       3.88019     15.56913      4.32120         0.268995     -0.369649      0.661266
Pb       3.83436     15.55295     17.54008         0.144476      0.388181      0.432758
Pb       0.03594      3.87577      4.39523        -0.435920      0.035264     -0.254640
Pb      15.58893      3.92700     17.62497        -0.112301      0.107038      0.187410
Pb      15.54742     15.54598      4.31635        -0.034850      0.115928      0.442958
Pb      15.50112      0.03121     17.54542         0.497518     -0.454015      0.954085
Pb       3.84477      3.92801      8.78718        -0.202593     -0.123385     -0.150890
Pb       3.83698      0.03582      8.72561         0.226996     -0.099978      0.266196
Pb      15.57293      3.90470      8.70178         0.134625     -0.050452      0.212567
Pb       0.01176     15.59650      8.75838        -0.328549     -0.185178     -0.083735
Pb       3.90529      3.70022     13.22068        -0.380687      0.844899     -0.008011
Pb       3.82563     15.54521     13.17667         0.268197     -0.070913     -0.026666
Pb      15.57562      3.79154     13.16564         0.419528      0.303471      0.306357
Pb      15.58767      0.09103     13.14496        -0.187070     -0.363422      0.159262
Pb       3.88354      7.82561      4.39846        -0.149095     -0.404447      0.064832
Pb       3.94929      7.80879     17.57900        -0.675993      0.007654      0.539345
Pb       0.01061      7.94990      4.40387         0.130083     -1.125671      0.158829
Pb       0.02298      7.83960     17.54684        -0.024544     -0.098740      0.518249
Pb       3.89530      7.87616      8.82592         0.364674     -0.308367     -0.196138
Pb      15.57416      7.80156      8.81849        -0.189712      0.026820      0.025527
Pb       3.89034      7.80083     13.13183         0.585134     -0.484148      0.337528
Pb       0.04201      7.86958     13.17283        -0.388790     -0.376161      0.422409
Pb       3.89976     11.64142      4.36670        -0.122307      0.274757      0.180440
Pb       3.92537     11.63881     17.56607        -0.241904      0.319149      0.160430
Pb      15.51007     11.54266      4.27502         1.024171      1.412577      1.323986
Pb      15.55761     11.63434     17.51354         0.272291      0.353635      0.857145
Pb       3.84611     11.59023      8.73523         0.062245      0.341126      0.297397
Pb      15.54100     11.73325      8.80816         0.059868      0.104752     -0.435913
Pb       3.86330     11.72962     13.16264        -0.466077      0.148006      0.176189
Pb      15.53187     11.62993     13.17160         0.016505      0.262358     -0.085204
Pb       7.85024      3.73474      4.45148        -0.219245      0.493132      0.083431
Pb       7.78945      3.83761     17.55751        -0.264984      0.429305      0.626612
Pb       7.72968     15.50478      4.31665         0.074914      0.087524      0.482907
Pb       7.77188     15.57386     17.63176        -0.156909      0.101566     -0.113886
Pb       7.73220      3.89767      8.74487        -0.238403     -0.133884      0.136664
Pb       7.80844     15.58397      8.69777         0.088083      0.126346      0.538259
Pb       7.96732      3.93232     13.10212        -0.712620      0.155952      0.995381
Pb       7.79116      0.02737     13.22703        -0.021433     -0.372463     -0.083942
Pb       7.89758      7.78053      4.37140        -0.234572     -0.214901     -0.231815
Pb       7.80216      7.88643     17.62011         0.100786     -0.716062      0.433559
Pb       7.76546      7.81311      8.74525        -0.459621     -0.061615      0.320921
Pb       7.77960      7.89731     13.07511        -0.257624     -0.610421      1.855414
Pb       7.83813     11.70620      4.38786        -0.191101     -0.004039     -0.015548
Pb       7.78374     11.69584      0.01266        -0.234838      0.210823     -0.025683
Pb       7.82818     11.69662      8.90268        -0.061083      0.038696     -0.324045
Pb       7.79146     11.73961     13.18676         0.049865     -0.099786      0.580940
Pb      11.65340      3.88163      4.42323         0.100147     -0.054653     -0.282553
Pb      11.83726      3.84532     17.58747        -1.010321      0.030532      0.515050
Pb      11.56075     15.47479      4.40086         0.502950     -0.095964      0.167837
Pb      11.54389     15.51254     17.60474         0.142362      0.350813      0.286737
Pb      11.57509      3.89564      8.76306         0.421379      0.092381      0.378090
Pb      11.77689      0.05062      8.71228        -0.310659     -0.636153      0.350911
Pb      11.76768      3.90072     13.20016        -0.181363      0.193587     -0.301443
Pb      11.68962     15.57512     13.16306        -0.002601     -0.156014      0.437130
Pb      11.74567      7.73440      4.28300        -0.209139     -0.384077      0.647233
Pb      11.73227      7.74055     17.52535        -0.982759      0.001532      0.599732
Pb      11.60426      7.78729      8.69993         0.341234      0.162724      0.763910
Pb      11.74166      7.74909     13.20429        -0.584202     -0.319210      0.600292
Pb      11.70230     11.66685      4.25370        -1.039283      0.063993      1.477870
Pb      11.79109     11.57926     17.46458        -0.479212      0.564042      1.217598
Pb      11.71709     11.61054      8.62262         0.018488      0.947572      1.282519
Pb      11.62948     11.62411     13.03914         0.234653      0.428797      0.874689
Ti       1.96297      1.96069      2.39031        -0.737103     -0.319357     -1.622016
Ti       1.83988      2.00164     15.63907         0.685870      0.234229     -1.265246
Ti       1.91705     13.69756      2.34478        -0.214298     -1.313622     -0.988855
Ti       1.92321     13.67984     15.61354         0.564234     -0.822610     -0.886032
Ti      13.63208      1.92899      2.37576         0.186582     -0.317107     -0.430233
Ti      13.56055      1.88183     15.71831        -0.766274      0.235684     -1.516776
Ti      13.65324     13.55689      2.36340         0.193155      0.514354     -0.962524
Ti      13.63713     13.63805     15.56910        -0.206182     -0.205816     -0.713095
Ti       1.86440      1.94242      6.80984         0.003768      0.093181     -1.367229
Ti       1.95072     13.68195      6.83436        -0.102400     -0.384954     -1.086318
Ti      13.60427      1.93807      6.77115         0.975669     -0.310813     -1.400145
Ti      13.65682     13.63237      6.70194        -0.267082      0.403834     -0.686684
Ti       1.98049      1.91386     11.12214        -0.231723      0.482370     -0.016827
Ti       1.87554     13.62478     11.11094         0.147592     -0.115729     -0.300275
Ti      13.59593      1.90226     11.19143        -0.280068      0.187685     -0.475229
Ti      13.60812     13.63041     11.17724         0.114798      0.215217     -0.352141
Ti       1.89659      5.93467      2.26178        -0.232753     -0.642393     -1.065972
Ti       1.86709      5.87790     15.60875         0.479676     -0.580535     -0.984097
Ti      13.59039      5.74353      2.26887         0.733647      0.026552     -0.567136
Ti      13.56142      5.82263     15.61011        -0.117974     -0.171890     -1.103306
Ti       1.88258      5.96233      6.82588         0.844834     -0.589705     -0.955142
Ti      13.59257      5.85554      6.91376         0.363389     -0.275322     -2.310783
Ti       1.95066      5.80208     11.19120         0.478359     -0.829039     -0.208414
Ti      13.70677      5.87401     11.26795        -0.907150     -0.492089     -0.439285
Ti       1.94815      9.75203      2.37388         0.607678      0.358852     -1.240514
Ti       1.89575      9.75434     15.56886         0.438626      0.507524     -0.139711
Ti      13.57336      9.65444      2.46394         0.180710      0.034440     -2.011983
Ti      13.59291      9.71022     15.60655         0.051341      0.100549     -1.611213
Ti       1.93066      9.73236      6.83672         0.296255      0.538317     -0.883790
Ti      13.64730      9.71139      6.79215        -0.223801      0.097670     -0.810322
Ti       1.92838      9.66848     11.14982         0.165099      0.978903     -0.817949
Ti      13.59991      9.70227     11.20039         0.127682      0.084033     -0.869714
Ti       5.84320      1.95225      2.44415         0.434667     -0.230023     -0.983716
Ti       5.78723      1.98357     15.52058        -0.417890     -0.123344     -0.533630
Ti       5.83584     13.57031      2.39097         0.650029      0.057563     -1.269665
Ti       5.86446     13.69774     15.63878        -0.283790     -0.193922     -0.447874
Ti       5.81135      1.88301      6.85132        -0.277476      0.101779     -1.076893
Ti       5.87222     13.60350      6.85176        -0.746060      0.181289     -1.290043
Ti       5.91243      1.96494     11.21241        -0.625296     -0.418524     -1.455607
Ti       5.78928     13.66311     11.18203        -0.014388      0.382910     -0.707570
Ti       5.78098      5.77170      2.42442         0.343110     -0.153213     -1.721364
Ti       5.78616      5.85357     15.70166         0.672129      0.107637     -1.422896
Ti       5.72404      5.80899      6.79691        -0.739679      0.150742     -1.166701
Ti       5.87309      5.82620     11.15282        -1.014166      0.758620     -0.536484
Ti       5.85281      9.69996      2.43223        -0.089955      0.488476     -0.718305
Ti       5.81515      9.74714     15.64309         0.299555      0.029403     -0.899374
Ti       5.90644      9.78105      6.78982        -1.395722     -0.130440     -1.280448
Ti       5.79503      9.79774     11.23237         0.019410     -1.072700     -1.433116
Ti       9.78183      1.95187      2.44788        -0.485636     -0.383564     -0.881545
Ti       9.64938      1.92699     15.56132         0.665296     -0.100171     -1.072251
Ti       9.76680     13.63161      2.30609        -0.505218     -0.355315     -0.636884
Ti       9.75548     13.63908     15.62919        -0.464749     -0.210302     -0.960867
Ti       9.72529      1.98405      6.85857        -0.207911     -0.540443     -1.444672
Ti       9.72408     13.61215      6.84014         0.749956      0.401056     -1.100426
Ti       9.74838      1.84358     11.18386         0.296152      0.601559     -0.540954
Ti       9.69642     13.59551     11.14265         0.448811      0.017673     -1.027149
Ti       9.67163      5.79729      2.38673         0.122315     -0.357123     -1.422505
Ti       9.64097      5.79177     15.59126        -0.452794      0.580311     -0.963939
Ti       9.62987      5.92200      6.83864         0.274527     -0.937525     -1.554301
Ti       9.66125      5.87262     11.17175         1.139504      0.178981     -0.389805
Ti       9.68766      9.72592      2.41334         0.260864      0.239338     -1.192702
Ti       9.66824      9.75327     15.66635         0.101570     -0.418117     -1.107249
Ti       9.72430      9.77215      6.79569         0.444402      0.398508     -1.812766
Ti       9.71895      9.68807     11.23087        -0.044597     -0.269229     -1.243369
O       2.01681      1.91041      0.53041        -0.350079      0.060837      2.177431
O       1.73795      2.08530     13.75815         0.346302     -0.513590      2.345981
O       1.83729     13.67161      0.51351         0.293826      0.205642      1.957063
O       2.12963     13.61419     13.76752        -0.635258      0.130908      2.203043
O      13.57368      2.09627      0.57101         0.081815     -0.468653      1.126130
O      13.54432      1.80100     13.89744         0.142344      0.213418      1.451876
O      13.68951     13.33242      0.54867        -0.150276      0.714977      2.081120
O      13.61917     13.65523     13.75686         0.015023     -0.171714      1.973006
O       1.76540      1.85425      5.00379         0.556307      0.279311      1.025934
O       1.94971     13.64893      5.05087         0.133998      0.008085      1.307913
O      13.80785      1.90199      4.96275        -0.773477      0.297874      1.524350
O      13.63725     13.74864      4.89329        -0.165624     -0.484863      1.767885
O       1.98287      1.88510      9.32501        -0.346310      0.118029      0.830866
O       1.84415     13.74467      9.29246        -0.036595     -0.193409      1.869027
O      13.45800      1.90876      9.40668         0.403202      0.025893      0.997631
O      13.71473     13.65676      9.39503        -0.114782     -0.082376      1.200843
O       1.89124      5.89933      0.39090        -0.191399     -0.094583      2.464568
O       1.94189      5.67572     13.76570        -0.062836      0.810121      2.333373
O      13.53881      5.69148      0.42320         0.271497      0.209203      1.724357
O      13.43545      5.92105     13.78354         0.664694     -0.549744      1.967074
O       1.91526      6.06790      5.02136        -0.129427     -0.380449      1.341908
O      13.68929      5.81370      5.09515        -0.420200      0.015324      1.841593
O       1.94783      5.84904      9.39273        -0.315281      0.024821      1.387659
O      13.70025      5.94204      9.47890         0.030195     -0.202690      0.613864
O       1.87894      9.71391      0.56737         0.033408     -0.014007      1.275550
O       1.86633      9.80707     13.75862        -0.002007     -0.129500      1.265877
O      13.64049      9.80795      0.61613        -0.206230     -0.325787      2.026028
O      13.58435      9.72745     13.77078         0.292043      0.016761      1.897177
O       1.89110      9.64209      5.00763         0.203684     -0.016614      1.453504
O      13.51049      9.65964      4.98295         0.788095     -0.124320      1.019863
O       2.02412      9.53922      9.32160        -0.504832      0.678365      2.108097
O      13.62674      9.65037      9.39133        -0.034718     -0.017230      1.391593
O       5.80032      2.01702      0.65685         0.113417     -0.166160      1.233010
O       5.69490      2.00812     13.70075         0.458549     -0.299316      1.254369
O       5.98270     13.54115      0.55508        -0.406882      0.247847      1.794634
O       5.82256     13.73021     13.84043        -0.025856     -0.161545      0.729578
O       5.80895      1.73941      5.05761         0.059071      0.569154      1.082345
O       5.89521     13.64595      5.01721        -0.070859     -0.057157      1.667929
O       5.89948      1.94264      9.35119         0.010032      0.177054      2.281128
O       5.85044     13.62304      9.39373         0.116048     -0.064718      1.370964
O       5.87531      5.67310      0.55885        -0.345212      0.426499      2.571068
O       5.79431      5.91376     13.91008        -0.189904     -0.026357      1.389589
O       5.55284      5.69238      5.00107         0.496917      0.588427      1.289357
O       5.82596      5.99972      9.33437         0.339786     -0.755861      1.684828
O       5.90742      9.80534      0.62478        -0.320281     -0.003863      1.446715
O       5.88530      9.60571     13.85426        -0.372328      0.507292      1.205796
O       5.81786      9.92528      4.96398         0.213644     -0.729111      1.733761
O       5.83974      9.72367      9.38573         0.007150      0.312889      1.766013
O       9.64567      1.85850      0.66294         0.146960      0.104687      1.233551
O       9.78328      1.88039     13.71624        -0.579892      0.168916      1.885985
O       9.70928     13.70838      0.47092        -0.087158      0.070646      1.799770
O       9.73523     13.59930     13.80638        -0.154729      0.192310      1.514514
O       9.81311      2.12662      5.02111        -0.010859     -0.454429      1.884940
O       9.83039     13.62035      5.02337        -0.331560     -0.092190      1.611565
O       9.73868      1.85256      9.36438         0.047610      0.374490      1.168365
O       9.67818     13.43516      9.31183        -0.172668      0.639616      1.993992
O       9.57875      5.68536      0.58914         0.401086      0.340589      1.489364
O       9.54726      5.78421     13.74407         0.562837     -0.155198      2.280713
O       9.74448      5.84781      5.00553        -0.115518      0.102131      1.719394
O       9.56512      5.96392      9.33698         0.224200     -0.158739      1.506647
O       9.69651      9.66781      0.61161        -0.018198      0.248692      1.152782
O       9.67525      9.74268     13.86395         0.073955      0.437673      1.253909
O       9.82762      9.85467      4.95799        -0.566804     -0.588216      2.023967
O       9.64099      9.64824      9.38667         0.183879      0.111738      1.784058
O       3.93257      1.88544      2.92334        -0.675325     -0.026934     -0.598701
O       3.79442      2.08300     15.95782         0.188444     -0.223438     -0.412760
O       3.99177     13.62533      2.75029        -1.032815      0.208122     -0.211941
O       3.89439     13.57290     16.22339        -0.458326      0.458848     -0.991941
O       0.04310      1.87814      2.78008        -0.146529      0.141525     -0.510357
O      15.40221      1.96920     16.19220         1.413728     -0.352640     -0.790357
O       0.02546     13.53584      2.88249        -0.388592     -0.175970     -0.889748
O      15.54852     13.56841     16.02384         0.433052      0.591160     -0.765993
O       3.80941      1.86814      7.17767         0.206103      0.044330     -0.124545
O       3.88694     13.81050      7.21090        -0.046537     -0.501174     -0.151811
O      15.48843      1.95273      7.20580         0.366443     -0.021593      0.389219
O      15.56738     13.60850      7.24655        -0.709647     -0.097828     -0.345135
O       3.80046      1.93122     11.66939         0.935303     -0.090203     -0.666996
O       3.90526     13.62469     11.60643        -0.373883      0.029433     -0.335161
O      15.48227      1.89601     11.64515         0.657988      0.147251     -0.653309
O      15.56183     13.58663     11.70435         0.566933      0.298133     -0.787450
O       3.79270      5.80463      2.71272         0.747653     -0.021643     -0.190058
O       3.83664      5.81352     16.16755         0.022447      0.413757     -0.911581
O      15.49006      5.73547      2.62852         0.939449      0.092753     -0.073478
O      15.57633      5.88320     16.00367        -0.642510     -0.226339     -0.439114
O       3.79926      5.77804      7.34650         0.310371      0.327725     -0.539643
O      15.59991      5.88424      7.30085        -0.290008      0.112359     -0.129452
O       3.91126      5.89009     11.57441        -0.221970      0.172643     -0.230888
O       0.01683      5.72909     11.70906        -0.060635      0.827750     -0.594858
O       3.85662      9.67071      2.85979         0.505481      0.051602     -0.393605
O       3.81262      9.70000     16.05841         0.517358      0.341424     -0.470880
O       0.09541      9.77002      2.92428        -1.620519     -0.725697     -0.960078
O      15.54624      9.73388     16.06608        -0.152090     -0.238476     -0.848126
O       3.88698      9.78005      7.23889        -0.176025      0.171729     -0.306854
O      15.55626      9.77997      7.24289        -0.054200     -0.429539     -0.348786
O       3.87975      9.77620     11.63813        -0.459247     -0.534670     -0.403508
O      15.58324      9.80899     11.61388         0.169013     -0.708892     -0.373273
O       7.84810      1.97388      2.94923        -0.370508     -0.514022     -0.518739
O       7.67091      1.84149     15.91391         0.619334      0.029730     -0.168843
O       7.82523     13.53720      2.86037         0.255179      0.314916     -0.530503
O       7.73075     13.75255     16.07555         0.566128      0.030903     -0.532336
O       7.79367      1.95027      7.17885         0.227514      0.380219      0.063937
O       7.76513     13.57011      7.22185         0.323007     -0.078393     -0.016482
O       7.77549      1.87518     11.68691        -0.172450      0.158246     -0.684267
O       7.81766     13.58792     11.66345        -0.459572      0.435601     -0.552355
O       7.84939      5.73555      2.86019        -1.200668      0.727343      0.130639
O       7.75063      5.95167     16.10511         0.434453     -0.366382     -0.515080
O       7.67323      5.90637      7.14008         0.236080     -0.308746     -0.103431
O       7.77766      5.94950     11.66272        -0.435880     -0.590564     -0.900200
O       7.80324      9.76796      2.86518        -0.341076     -0.105456     -0.147901
O       7.73467      9.62735     16.12582         0.374052      1.024557     -0.645045
O       7.78169      9.80816      7.20401         0.045305     -0.228014     -0.336995
O       7.86918      9.75288     11.70300        -0.814809      0.435012     -0.905300
O      11.73516      1.95212      2.85240        -0.333289     -0.159650     -0.180849
O      11.55758      1.92559     16.16159         0.485550     -0.139332     -0.668234
O      11.62702     13.59601      2.79059         0.825183      0.163598     -0.478667
O      11.66295     13.63833     16.05654         0.339183     -0.135760     -0.548615
O      11.68658      1.85319      7.21925        -0.463108      0.990917     -0.301893
O      11.66259     13.66101      7.22429         0.445341     -0.333343     -0.335138
O      11.65453      1.84089     11.69705         0.090555      0.926235     -0.707329
O      11.69719     13.67678     11.58134        -0.453725     -0.554302     -0.416561
O      11.67013      5.90878      2.66462         0.077787     -0.646885      0.281829
O      11.65319      5.74336     16.02124        -0.481785      0.394452     -0.379735
O      11.59880      5.88382      7.30598         0.544693     -0.342212     -0.371573
O      11.68735      5.89134     11.62893        -0.526676     -0.543587     -0.437184
O      11.74715      9.60711      2.87891        -0.270535      0.602398     -0.802433
O      11.61223      9.71458     16.10041         0.872045      0.288268     -0.663201
O      11.65576      9.81836      7.25514         0.090575     -1.516194     -0.639321
O      11.67008      9.63740     11.71017        -0.168073      0.601234     -0.938143
O       1.95430      3.81254      2.85117        -0.080894      0.337485     -0.554008
O       1.82261      3.83081     16.13620        -0.075874      0.787009     -0.685100
O       1.90345     15.48749      2.89132         0.510078      0.738544     -0.827342
O       1.98946      0.03363     16.02434        -0.697252     -0.430276     -0.544739
O      13.67193      3.80347      2.87470        -0.404870      0.821586     -0.473869
O      13.52372      3.84868     16.00969         0.555124      0.445501     -0.613739
O      13.68531     15.49498      2.67467        -0.208858      0.172502     -0.352034
O      13.62272     15.52303     16.20987        -0.422130      0.005536     -0.932183
O       1.86208      3.90532      7.10996        -0.033031     -0.208898      0.213704
O       1.78096      0.00475      7.24179         0.382882      0.065282     -0.238045
O      13.64057      3.89133      7.28330        -0.554590      0.207916     -0.165401
O      13.58366     15.56784      7.15894         0.342113     -0.080669     -0.070788
O       1.99947      3.84023     11.57780        -0.586804      0.438705     -0.534641
O       1.96043      0.03590     11.66352        -0.518506     -0.867185     -0.609453
O      13.64586      3.88351     11.76066        -0.591601     -0.333283     -0.841713
O      13.59480     15.57375     11.71045         0.354113     -0.089632     -0.819619
O       1.89541      7.72712      2.75300        -0.199725      0.318638     -0.176950
O       1.84944      7.84403     16.06764         0.405577     -0.501346     -1.016249
O      13.65956      7.69995      2.80286         0.244834      0.679140     -0.452026
O      13.52691      7.80560     16.09815         0.563921     -0.318942     -0.771598
O       2.04445      7.86148      7.28247        -0.807208     -0.719288     -0.405602
O      13.65429      7.77107      7.24705        -0.285703      0.486078     -0.108439
O       1.85160      7.82443     11.72390         0.363612     -0.320619     -0.922176
O      13.58681      7.74825     11.79736         1.105408      0.667601     -1.069383
O       2.00474     11.62616      2.82339        -0.070112      0.580182     -0.379278
O       1.96074     11.69946     16.06641        -0.236278     -0.114616     -0.679665
O      13.56502     11.65727      3.00470         0.762114     -0.441341     -1.538694
O      13.65298     11.62884     16.02611        -0.387138      0.224802     -0.782522
O       1.93558     11.66764      7.29823        -0.040211      0.273740     -0.257369
O      13.56932     11.63466      7.18165         0.524155      0.593020     -0.372568
O       1.98776     11.71383     11.44645        -0.320555     -0.060436     -0.007580
O      13.65015     11.59399     11.58648        -0.431555      0.653360     -0.188478
O       5.85990      3.86061      2.91332        -0.381625      0.289702     -0.258577
O       5.87433      3.92470     16.07488        -0.318461     -0.443661     -0.650723
O       5.94718     15.59602      2.82320        -0.265482     -0.462675     -0.482867
O       5.67917      0.07263     16.01173         0.145742     -0.182234     -0.207493
O       5.70961      3.84140      7.26535         0.593920      0.470786     -0.187886
O       5.92719      0.02718      7.34997        -0.396678     -0.645767     -0.549095
O       5.79878      3.91849     11.60451         0.431975     -0.195692     -0.651398
O       5.74405     15.58128     11.59403         0.580992      0.122126     -0.162202
O       5.85176      7.78548      2.76434         0.152812     -0.660103      0.170062
O       5.81262      7.89282     16.24061        -0.277493     -0.895258     -0.818828
O       5.63350      7.84172      7.12808         0.930112     -0.135591     -0.398754
O       5.83652      7.83992     11.68028        -0.144160     -0.105968     -0.615304
O       5.81859     11.65495      2.92528         0.148251      0.223115     -0.751721
O       5.90674     11.75873     16.01003        -0.322444     -1.066919     -0.172516
O       5.72361     11.72002      7.30329         0.524676     -0.046972     -0.489136
O       5.76392     11.61399     11.73250         0.767514      0.977397     -0.581659
O       9.68129      3.83923      2.92565         0.947490      0.608771     -0.540279
O       9.55595      3.82749     15.95572         0.310647      0.381416     -0.492343
O       9.79639     15.52731      2.90583        -0.492732      0.306036     -0.808010
O       9.73726      0.01740     16.09313        -0.329977     -0.305824     -0.538597
O       9.69015      3.93212      7.34217         0.096416     -0.289335     -0.509637
O       9.70584     15.58096      7.18489        -0.070695      0.078030     -0.194088
O       9.63067      3.93452     11.56048         0.607074     -0.254905     -0.682760
O       9.77219      0.02416     11.61159        -0.666848     -1.189576     -0.432876
O       9.69314      7.86932      2.87092        -0.008084     -1.329994     -0.164611
O       9.76751      7.82769     16.06500        -0.091922     -0.869102     -0.269863
O       9.68229      7.77399      7.21433        -0.044081      0.944588     -0.431439
O       9.74566      7.76823     11.76220        -0.064728      0.531224     -1.258141
O       9.79834     11.65186      2.75728        -0.092203      0.334570     -0.293949
O       9.64100     11.73637     16.10759         0.110622     -0.286119     -0.636777
O       9.79594     11.63824      7.29237        -0.800195      0.154140     -0.553416
O       9.68824     11.71652     11.67208         0.479703     -0.478699     -0.673057
