  # total energy = -7882.78255410 
CRSYTAL
PRIMVEC
    15.3600000000000000    0.0000000000000000    0.0000000000000000
     0.0000000000000000   15.3600000000000000    0.0000000000000000
     0.0000000000000000    0.0000000000000000    17.440000000000000
PRESSURE
2.04503 2.2833 1.7022 0.023805 0.247725 0.007005
PRIMCOORD
320 1
Pb       3.85337      3.75160      4.28434        -0.283385      0.139438      1.145004
Pb       3.74597      3.77760     17.41343        -0.145722      0.106691      0.086386
Pb       3.78740     15.27558      4.31489         0.102693      0.563712      1.043779
Pb       3.70427     15.26269     17.30626         0.620875      0.345010      0.601087
Pb       0.04194      3.74262      4.24488         0.400760      0.503451      0.724764
Pb       0.00855      3.83029     17.35707         0.549215      0.190712      0.948197
Pb       0.01512     15.35211      4.27941         0.102675     -0.327881      0.705367
Pb       0.01831     15.30164     17.36505        -0.070608      0.631209      0.585208
Pb       3.76832      3.77769      8.74153         0.409555      0.439036     -0.033517
Pb       3.84421      0.03556      8.51844         0.009335     -0.225693      1.536630
Pb       0.04404      3.90875      8.71531        -0.668267     -0.126290      0.066614
Pb      15.24059     15.33680      8.70695         0.574938      0.163564      0.551899
Pb       3.79712      3.81819     13.02647        -0.113906     -0.288914      0.212000
Pb       3.79216      0.08534     12.95081         0.421996     -0.518002      0.658147
Pb       0.03398      3.81671     13.03317         0.186208     -0.055704      0.547782
Pb      15.31053     15.27976     13.06279         0.520370      0.163480      0.010338
Pb       3.81044      7.64993      4.34576         0.009410      0.045334     -0.258823
Pb       3.84502      7.57722     17.31684        -0.444824      0.269702      0.800982
Pb      15.32704      7.77820      4.29056         0.399022     -0.351954      0.302188
Pb      15.25976      7.55665     17.41109         0.244196      0.096355     -0.108032
Pb       3.74650      7.73585      8.63323         0.418111      0.186392      0.438794
Pb      15.35807      7.69502      8.64176        -0.102056      0.039351      0.429758
Pb       3.83974      7.60363     12.94038        -0.235553      0.708133      0.674774
Pb      15.29349      7.58073     13.04584         0.268564      0.454631      0.794312
Pb       3.90317     11.52971      4.33525        -0.440804     -0.496471      0.475566
Pb       3.73602     11.62350     17.36079         0.696136     -0.796180      0.446844
Pb      15.23330     11.46395      4.39059         0.234891      0.296323     -0.159941
Pb      15.30205     11.55377     17.34521        -0.069360     -1.032939      0.811789
Pb       3.89837     11.48007      8.65493        -0.497348      0.013555      0.581821
Pb      15.28287     11.52968      8.71225         0.154181      0.244064      0.038997
Pb       3.80962     11.44653     13.01316        -0.246494      0.162252      0.007473
Pb       0.05981     11.52244     12.97739         0.015225     -0.169118      0.444219
Pb       7.67598      3.75668      4.26965        -0.037307      0.643471      0.369983
Pb       7.55043      3.76571      0.03666         0.461966      0.356302      0.583614
Pb       7.69593     15.23696      4.38340        -0.429558      0.239051      0.111430
Pb       7.70300      0.00072     17.41333        -0.046542     -0.640623     -0.101212
Pb       7.65819      3.87539      8.59682        -0.231840     -0.177778      0.584854
Pb       7.63623      0.04013      8.69537         0.153677      0.073653      0.344042
Pb       7.74931      3.89369     12.94279        -0.295859     -0.766195      0.868021
Pb       7.59085      0.05598     12.98121        -0.112065      0.288263      0.382828
Pb       7.76141      7.64947      4.34782        -0.534200     -0.057005      0.164241
Pb       7.55223      7.75039     17.36888        -0.167684     -0.121567      0.388677
Pb       7.75366      7.59314      8.66543        -0.589075      0.396907      0.829180
Pb       7.70327      7.72345     13.02091        -0.171916     -0.193925      0.254830
Pb       7.66135     11.50253      4.32217         0.268749     -0.440574      0.471628
Pb       7.65789     11.44754     17.39323        -0.789763      0.412198      0.373285
Pb       7.62731     11.59096      8.61667         0.216382     -0.280854      1.142205
Pb       7.61403     11.45873     12.93517        -0.047459      0.213642      0.623532
Pb      11.42710      3.84393      4.23637         0.073938     -0.277055      0.774395
Pb      11.58909      3.82168     17.42540        -0.238751      0.157951      0.603010
Pb      11.54568     15.22867      4.39105         0.111979      0.546773      0.047819
Pb      11.40833     15.31028      0.09394         0.079772      0.075737     -0.368239
Pb      11.39188      3.80360      8.63754         0.902834      0.298558      0.000888
Pb      11.49946      0.07252      8.69056        -0.175016     -0.231954      0.260534
Pb      11.57905      3.76621     13.03062        -0.420681     -0.007404      0.885710
Pb      11.57173      0.00112     12.99667        -0.469282     -0.015703      0.633280
Pb      11.46708      7.61102      4.28012         0.033765      0.456621      0.902751
Pb      11.52248      7.70719     17.38437        -0.084533     -0.386805      0.336760
Pb      11.53022      7.71138      8.64185        -0.170716     -0.434113      0.534855
Pb      11.48659      7.58766     13.10792         0.764899      0.285823      0.869811
Pb      11.52771     11.53470      4.20318        -0.484468     -0.254993      1.244576
Pb      11.43185     11.45761     17.38676        -0.055491      0.353304      0.764862
Pb      11.58350     11.50203      8.54538         0.015874      0.600961      1.230262
Pb      11.57140     11.50724     13.05477        -0.133955     -0.106491     -0.072282
Ti       2.01790      1.84464      2.33182        -0.698102      0.568914     -1.867090
Ti       1.90153      1.89698     15.41006         0.915900      0.471752     -0.450596
Ti       1.94325     13.37762      2.32910        -1.048206      0.109998      0.614478
Ti       1.84313     13.39616     15.38314         1.047984      0.078538      0.387546
Ti      13.50164      1.95969      2.38649        -0.495753     -1.275732      0.580013
Ti      13.46669      1.85681     15.37432        -0.309293      0.732184      1.225760
Ti      13.49349     13.48920      2.29896        -0.445600      0.151505      0.856332
Ti      13.35367     13.42369     15.49483        -0.590329     -0.207583     -0.863214
Ti       1.88261      1.96009      6.79461         0.187054     -0.429889     -0.239186
Ti       1.89307     13.45711      6.74032        -0.743593      0.489858      0.372106
Ti      13.45098      1.91638      6.62371        -0.383195      0.616739      2.975519
Ti      13.36564     13.48858      6.72810         0.814151     -0.496681     -0.422478
Ti       1.90916      1.86942     10.99571        -0.071178      0.175419      0.094079
Ti       1.91605     13.42593     10.97476        -0.019177      0.194024     -0.500326
Ti      13.54520      1.90604     11.01287        -1.671147      0.039806      1.645440
Ti      13.38944     13.42391     11.09545         0.634049     -0.260369     -0.614351
Ti       1.90625      5.72075      2.38514        -0.129502      0.321541     -1.732152
Ti       1.94867      5.75881     15.37536        -0.555412     -0.512614     -0.275873
Ti      13.38902      5.79867      2.45484         0.700369     -0.551903     -1.092570
Ti      13.34661      5.67674     15.44217         0.645565      0.521247      0.706628
Ti       1.90162      5.82667      6.79913        -0.026504     -0.926384     -1.487748
Ti      13.42616      5.76040      6.59745        -0.699594     -0.409196      0.985728
Ti       1.93455      5.75613     11.07107        -1.548388      0.286577     -0.469886
Ti      13.46502      5.68118     11.11125        -0.395305      0.746901      1.804486
Ti       1.95574      9.62024      2.28290        -0.712934     -0.548013      0.028391
Ti       1.84023      9.55453     15.39911        -0.279867      0.088267     -1.727751
Ti      13.36976      9.67148      2.29739         0.589847     -0.703772     -0.096319
Ti      13.37128      9.59171     15.42214         0.562449     -0.957926     -0.440810
Ti       1.90646      9.67525      6.61833        -0.325902     -0.117656      0.279579
Ti      13.43042      9.56300      6.71161         0.201622      0.761510     -0.607061
Ti       1.85300      9.54556     11.04819         0.697513      0.640895      0.426264
Ti      13.47250      9.55141     11.12273        -0.777229      0.173541      0.496659
Ti       5.79225      1.86507      2.38177         0.417475     -0.089509     -0.149890
Ti       5.81155      1.86486     15.52786        -1.001754     -0.390906     -1.234978
Ti       5.68643     13.42073      2.42961         1.333397     -0.655135     -0.895913
Ti       5.81181     13.39032     15.35270        -0.932118      0.148073      0.571746
Ti       5.80172      1.95023      6.69128        -0.740337     -0.001123      0.183556
Ti       5.71398     13.40582      6.73801         0.004586      0.482951     -0.781355
Ti       5.73305      1.99923     10.94351         0.757407     -0.719507      0.124300
Ti       5.73019     13.47497     11.03644        -0.849084     -0.238284     -0.150518
Ti       5.67062      5.71892      2.33493         0.340873      0.456059      0.141471
Ti       5.76403      5.64750     15.34040        -1.190075      0.997830      0.488336
Ti       5.70719      5.76980      6.65077        -0.115956     -0.233629     -0.057897
Ti       5.73585      5.76480     11.07183         0.573817     -0.145192     -0.905053
Ti       5.75471      9.60591      2.40770        -0.263665     -1.061529     -0.638641
Ti       5.60899      9.57460     15.38452         0.532425     -0.060142     -0.312416
Ti       5.79563      9.53840      6.68269        -0.319417      0.663389     -0.201822
Ti       5.75798      9.57736     11.02307        -1.020213      0.089103     -0.368407
Ti       9.64495      1.81806      2.33232         0.468612      0.283420      0.251178
Ti       9.64091      1.99486     15.52428         0.167343     -1.196942      0.556216
Ti       9.57834     13.39240      2.40338        -0.371845     -0.534723      0.154365
Ti       9.60861     13.38115     15.31564        -0.355012      1.315145      1.548448
Ti       9.59319      1.92644      6.61159         0.585406     -0.291620      1.644116
Ti       9.53075     13.45888      6.73560         0.980468      0.170988      0.425193
Ti       9.65194      1.88524     11.02332        -0.702463     -0.092097      0.197735
Ti       9.53423     13.46688     11.06793         0.305768      0.360223     -0.744026
Ti       9.54383      5.73251      2.30070        -0.162574     -0.221264      0.760182
Ti       9.47829      5.75796     15.54798         1.074287     -0.598819      0.108264
Ti       9.54152      5.76630      6.74499         1.343414     -0.014707     -2.101535
Ti       9.63220      5.74203     11.13746         0.742355     -0.125606     -1.132818
Ti       9.56146      9.51511      2.27856        -0.228754      0.441242      2.044039
Ti       9.54221      9.60352     15.40727        -0.073877     -0.633318     -0.293569
Ti       9.52772      9.64009      6.78354         0.526402     -0.101714     -0.579470
Ti       9.60587      9.60173     11.10277         0.708068     -0.166867      0.542745
O       2.02621      1.78437      0.48672        -0.327618      0.258860      2.351843
O       1.81720      1.90337     13.62614         0.471881      0.028018      0.104432
O       1.97654     13.39770      0.57532        -0.285490      0.028614     -0.070568
O       1.90707     13.39277     13.65952        -0.225273      0.043550      0.083343
O      13.71594      1.88360      0.69470        -0.632493     -0.088674     -1.007610
O      13.42797      1.95760     13.62429         0.275934     -0.408372      1.054483
O      13.38528     13.48392      0.55369         0.186498     -0.064374      0.014119
O      13.30312     13.41751     13.68277         0.194464      0.111247      1.141298
O       1.93005      1.98632      5.03990        -0.040920     -0.106541     -0.392497
O       1.84613     13.48658      4.97280         0.135954     -0.073555      0.390901
O      13.37227      1.85825      4.94029         0.326805      0.211227     -1.452664
O      13.47529     13.39756      4.96799        -0.134465      0.358060      0.060448
O       1.99616      1.86970      9.23725        -0.389960      0.229500      0.708414
O       1.96673     13.53290      9.19719        -0.202822     -0.396275      0.919629
O      13.45822      1.80805      9.31984        -0.201191      0.382077     -0.944693
O      13.45959     13.38531      9.33380        -0.181439      0.195238      0.249986
O       1.85783      5.68629      0.53782         0.406503      0.458184      1.527658
O       1.96676      5.74870     13.57642         0.219685     -0.142816      0.681594
O      13.48466      5.69223      0.65260        -0.168928      0.383591      1.020387
O      13.38887      5.62931     13.72635         0.069443      0.015992     -0.758657
O       1.93990      5.72291      5.03094        -0.083765      0.139800      0.900946
O      13.38952      5.78397      4.86403         0.186472     -0.173748     -0.720730
O       1.75504      5.88731      9.29479         0.455627     -0.212535     -0.056897
O      13.51068      5.69158      9.44018        -0.242434      0.205148     -1.837474
O       1.78843      9.51288      0.51491         0.424189      0.274589      0.907818
O       1.76711      9.57808     13.53926         0.447838      0.293140      2.233344
O      13.35194      9.56894      0.53235         0.017491      0.098901      0.662439
O      13.40456      9.43979     13.66259        -0.094568      0.835741      0.442637
O       1.75232      9.48511      4.86390         0.417095      0.834334      0.798346
O      13.51199      9.64595      4.95040        -0.263646     -0.172668      0.062387
O       1.94569      9.56425      9.29237        -0.262888     -0.071300     -0.284984
O      13.44953      9.74645      9.38220         0.027031     -0.582249     -0.265514
O       5.90825      1.86810      0.61619        -0.442063     -0.031082      0.182276
O       5.73262      1.84729     13.74093         0.235442     -0.013279      0.968602
O       5.76103     13.24032      0.68054        -0.200309      0.488292      0.579734
O       5.59591     13.50927     13.62299         0.534253     -0.211961     -0.277859
O       5.74920      1.91505      4.93863         0.168277      0.014178     -0.015455
O       5.75766     13.43192      4.93702        -0.319353     -0.234274      0.827646
O       5.89753      1.97279      9.18216        -0.379402      0.290803      0.662825
O       5.80085     13.42684      9.27046        -0.212574     -0.188318      0.249712
O       5.58595      5.56830      0.56195         0.317013      0.658927      1.256070
O       5.77901      5.84624     13.58419        -0.081257     -0.544274     -0.207218
O       5.79098      5.71803      4.89346        -0.368078      0.122409      0.598802
O       5.84276      5.83033      9.32068        -0.240093     -0.380614      0.335212
O       5.70501      9.70476      0.65029         0.169208     -0.482315     -0.206349
O       5.67764      9.50889     13.60654         0.185788      0.164278      0.394443
O       5.87718      9.52521      4.92567        -0.376702      0.381711      0.136091
O       5.67737      9.59855      9.25136         0.147449     -0.038845      0.779068
O       9.78638      1.80012      0.57790        -1.027496     -0.128109      0.197004
O       9.59759      2.03464     13.81838        -0.216836     -0.157436     -1.011392
O       9.62477     13.34127      0.67514        -0.322252      0.389644     -0.164198
O       9.76655     13.39227     13.60619        -0.358842     -0.073333     -0.770271
O       9.66599      1.94980      4.90655        -0.248935     -0.085255     -1.334254
O       9.67564     13.22627      5.02103        -0.709598      0.812837     -0.555202
O       9.64475      1.80187      9.24758        -0.002251      0.569712      0.838289
O       9.55614     13.71334      9.30035        -0.235626     -0.940366      0.855564
O       9.57684      5.73866      0.59030        -0.146391      0.255083     -0.700080
O       9.68531      5.66400     13.80230        -0.929970      0.263592      0.467996
O       9.58398      5.76897      4.92337        -0.120846      0.047290      1.290049
O       9.74160      5.74504      9.32492        -0.375446      0.040974      0.701919
O       9.50697      9.51387      0.57904        -0.044460      0.187459     -1.369611
O       9.54376      9.54453     13.63325        -0.237746      0.288286      0.905656
O       9.48992      9.64821      5.04770         0.223035     -0.354330      0.131714
O       9.57486      9.42905      9.38000         0.190009      0.326238     -0.378863
O       3.87864      1.79236      2.78164        -0.033977      0.193449     -0.202383
O       3.79276      1.84407     15.92754         1.241523      0.110662     -0.596205
O       3.79654     13.40266      2.91508         0.271769      0.103302     -0.707372
O       3.81341     13.35170     15.90153        -0.747890      0.331419     -0.866586
O       0.07352      1.87012      2.82322         0.001501      0.352834     -0.195191
O       0.13688      1.90196     15.97504        -2.631949     -0.189588     -0.809392
O      15.35683     13.39287      2.73041         0.272101      0.345442     -0.303669
O      15.28196     13.32407     15.88132        -0.153823      0.631956     -0.685232
O       3.86230      1.99455      7.25412         0.411825     -0.065151     -0.887762
O       3.81361     13.37790      7.16696         0.387583      0.193019     -0.705568
O      15.34554      1.93154      7.23848        -0.197918      0.004158     -0.776782
O      15.28837     13.56600      7.30770         0.767716     -0.731159     -1.189006
O       3.82885      1.96675     11.36817         0.255063     -0.156084      0.180002
O       3.74094     13.37104     11.53760         1.120373      0.275132     -0.527001
O      15.32290      1.93663     11.46907         1.517977     -0.229376     -0.224998
O       0.00082     13.49782     11.46884        -0.060993     -0.015118      0.059810
O       3.77585      5.64832      2.86746         0.845299      1.045711     -0.399824
O       3.84807      5.71304     15.90848        -0.444645     -0.488244     -0.762689
O       0.10276      5.70462      2.88645        -1.301457     -0.115949     -0.410261
O       0.06130      5.67046     15.83771        -0.377153      0.709417     -0.350990
O       3.82396      5.67992      7.17094        -0.058217      0.854430     -0.104039
O      15.28950      5.76850      7.18687         1.050120      0.475411     -0.389225
O       3.74568      5.67788     11.35773         2.106876      0.576814      0.276416
O       0.04557      5.69342     11.58772        -0.817475      0.258842     -0.492145
O       3.83062      9.64543      2.84166        -0.753009     -0.275627     -0.249537
O       3.76364      9.56893     15.75302        -0.477850      0.530245      0.128830
O      15.25259      9.61713      2.74479         0.592543      0.324370     -0.218813
O      15.23024      9.53886     15.86355         0.454389      0.417626     -0.159348
O       3.84007      9.67571      7.06533        -0.342696     -0.044217     -0.387807
O      15.30328      9.65780      7.19196         0.653867     -0.471470     -0.457174
O       3.74406      9.60173     11.46056         1.235020     -0.223998     -0.120797
O      15.33985      9.49127     11.60448        -0.631201      0.289797     -0.864854
O       7.70026      1.96820      2.81094        -0.006141     -0.571048     -0.388825
O       7.74040      1.89777     16.01333        -0.952670     -0.450714     -0.498798
O       7.59732     13.37897      2.92866         0.831583     -0.082009     -0.603739
O       7.66443     13.42385     15.78788         0.721904     -0.037576     -0.269126
O       7.69355      1.99972      7.09007         0.231978     -0.277429     -0.358007
O       7.60021     13.48713      7.15258         1.156907     -0.090975     -0.355968
O       7.61534      1.95959     11.43769         0.427888     -0.108226      0.081817
O       7.55784     13.44370     11.45437         1.411401     -0.224217      0.287600
O       7.65988      5.83241      2.82012        -0.182931     -0.841689     -0.853081
O       7.51288      5.71987     15.99032         1.590678      0.527942     -0.636577
O       7.62363      5.76869      7.07426         0.628561      0.112087      0.122149
O       7.76496      5.74990     11.41913        -0.749542      0.127380      0.316769
O       7.66396      9.48410      2.79309         0.592358      0.325267     -0.363502
O       7.52303      9.59742     15.87708         0.996173     -0.624834     -0.409557
O       7.64823      9.52569      7.21588         0.647838      0.574879     -0.124480
O       7.64834      9.58844     11.43653         0.247877     -0.415672      0.201012
O      11.51224      1.71023      2.68169         0.195505      0.533856      0.285900
O      11.55062      1.96868     15.96783         1.254496     -0.161202     -0.753600
O      11.45436     13.51774      2.85332         0.725531     -0.532902     -0.665123
O      11.42598     13.44484     16.05378         0.659585     -0.530475     -1.074576
O      11.51848      1.88271      7.15295         0.526491      0.716677     -0.445327
O      11.47638     13.39830      7.08713         0.332849      0.417609      0.146639
O      11.48359      1.85686     11.53535         0.411642      0.089318     -0.784697
O      11.51626     13.52306     11.38354        -0.608322     -0.391319      0.253388
O      11.47975      5.77969      2.90245         0.616779     -0.267128     -1.085615
O      11.46684      5.72578     15.98431        -0.224424     -0.303423     -0.434862
O      11.48633      5.76760      7.04033         0.331197      0.092934      0.295093
O      11.46030      5.66701     11.72736         0.824734     -0.013895     -1.174563
O      11.48702      9.53520      2.78777         0.538285      0.212276     -0.465279
O      11.46978      9.62833     15.88173        -0.859202     -0.685112     -0.448564
O      11.51997      9.66044      7.23217        -0.105253     -0.520494     -0.758880
O      11.47339      9.65437     11.59099         0.548069      0.057107     -0.581164
O       2.03126      3.80533      2.75477        -0.587064     -0.843222     -0.197625
O       1.97028      3.81686     15.79609         0.053902      0.176421     -0.258976
O       1.93159      0.00331      2.80247         0.023489     -0.766740     -0.303995
O       1.83661     15.35688     15.78975         0.268122     -1.711218     -0.204715
O      13.38272      3.78856      2.77841         0.164824      0.684466      0.095259
O      13.56507      3.84410     15.95478        -0.965565     -1.473362     -0.706304
O      13.47444     15.34513      2.89883        -0.022674     -0.385952     -0.614267
O      13.42061     15.34863     15.85946         0.231443      0.245594     -0.424424
O       1.95499      3.83013      7.27692        -0.599037      0.909635     -0.285014
O       2.00430      0.05648      7.16614        -0.480023     -0.608681     -0.688873
O      13.50058      3.93483      7.17642        -0.518854     -1.170219     -0.569632
O      13.42090      0.03332      7.15091        -0.145306      0.011956     -0.457050
O       1.96241      3.82783     11.49040        -0.481289     -0.533168     -0.410978
O       1.97454      0.00180     11.52163        -0.718415      0.283714     -0.567284
O      13.46666      3.81821     11.54554        -0.253411     -0.605830     -0.512896
O      13.48938      0.01650     11.60487        -0.286791     -0.305013     -0.659006
O       1.90324      7.71097      2.82854         0.219549     -0.227059     -0.625285
O       1.87916      7.70388     15.66462         0.143143     -0.825341      0.531295
O      13.51006      7.64081      2.75069        -0.608480      0.613722     -0.276274
O      13.33620      7.56085     15.80507         0.340739      1.042585      0.348564
O       1.93935      7.78072      7.10363        -0.276093     -0.817803     -0.047672
O      13.38460      7.68949      7.11541         0.290211     -0.008257     -0.158286
O       1.89338      7.71313     11.48824         0.004457     -1.373122     -0.246397
O      13.30877      7.61536     11.54305         0.525970      0.208966     -0.469485
O       1.91276     11.54311      2.77185         0.079355     -0.556429     -0.246935
O       1.80222     11.49125     15.89658         0.171569     -0.016896     -0.577841
O      13.37327     11.60449      2.77382         0.120589     -0.852856     -0.648529
O      13.20928     11.49906     15.89363         1.094249      0.328982     -0.598601
O       1.86673     11.55378      7.08928        -0.130015     -0.249999     -0.256747
O      13.52026     11.56638      7.05024        -0.486020     -0.413541      0.477730
O       1.85353     11.53798     11.45058        -0.249968     -0.366219     -0.281774
O      13.53287     11.48876     11.51884        -0.599985      0.439772      0.051542
O       5.66561      3.78862      2.80533         0.766830      0.115208     -0.479533
O       5.82276      3.78909     15.85400        -0.605346     -0.596349     -0.351329
O       5.83583     15.30219      2.83110        -0.330971      0.424223     -0.252593
O       5.67620     15.24033     15.95526         0.851776      1.020778     -0.327425
O       5.76710      3.87997      7.13584         0.115558     -0.076911     -0.205666
O       5.78349     15.35953      7.13023        -0.213690      0.166010     -0.594440
O       5.74921      3.85019     11.53332        -0.097793      0.162741     -0.491692
O       5.79574     15.35243     11.36047        -0.663442      0.781966      0.142619
O       5.70217      7.67021      2.77596        -0.381982     -0.942836     -0.316564
O       5.51375      7.59925     15.77765         1.470238      0.627466     -0.061697
O       5.73805      7.74811      7.03474        -0.290025     -1.784502      0.290212
O       5.82632      7.63527     11.43757        -0.551818      0.407825      0.044354
O       5.72857     11.43541      2.82231         0.078096      1.389247      0.431819
O       5.74396     11.51248     15.84199        -0.259514     -0.368612     -0.445437
O       5.82240     11.53284      7.22392        -0.325510     -0.235259     -0.851882
O       5.75345     11.46326     11.50012        -0.268661      0.180616     -0.360250
O       9.67690      3.81003      2.64568        -0.304331     -0.346207      0.195581
O       9.55007      3.83718     16.02299        -0.128018      0.631450     -0.230401
O       9.52162     15.26637      2.86671        -0.260549      0.586220     -0.338375
O       9.66986     15.30170     15.80151        -0.452925      0.128610      0.217453
O       9.68245      3.83536      7.05349        -0.681570      0.288890      0.183977
O       9.69931      0.06334      7.14012        -0.960323     -0.851653     -0.833964
O       9.60302      3.76706     11.57817         0.146310      0.271379     -0.866682
O       9.47606      0.01424     11.56467         0.381246     -0.079578     -0.209831
O       9.69180      7.63681      2.73234        -0.589370      0.235994      0.010347
O       9.53364      7.68863     15.98386        -0.270802     -0.135048     -0.752486
O       9.60881      7.67366      7.22746         0.033877      0.055563     -0.588785
O       9.76663      7.65095     11.68582        -1.618138     -0.019430     -1.327379
O       9.59598     11.41749      2.79777        -0.200414      0.585238     -0.380785
O       9.51411     11.45185     15.84585         0.324369      0.366481     -0.391489
O       9.61055     11.55829      7.15888        -0.740105     -0.413655      0.301335
O       9.49847     11.54765     11.51712         0.384488      0.115625     -0.591355
