  # total energy = -7882.18022528 
CRSYTAL
PRIMVEC
    15.3600000000000000    0.0000000000000000    0.0000000000000000
     0.0000000000000000   15.3600000000000000    0.0000000000000000
     0.0000000000000000    0.0000000000000000    17.440000000000000
PRESSURE
1.84645 1.63265 -0.691631 -0.185554 -0.246998 -0.03003
PRIMCOORD
320 1
Pb       3.83025      3.86292      4.23181        -0.009590     -0.226977      0.412564
Pb       3.76723      3.90429     17.34765         0.103765     -0.020631      0.610529
Pb       3.88434     15.35917      4.22281        -0.767375      0.206254      0.490790
Pb       3.98097      0.03258      0.02235        -0.486868     -0.592637      0.259509
Pb      15.24439      3.93793      4.29413         0.248866     -0.830022      0.123674
Pb      15.20366      3.72556     17.36746         0.245042      0.455016      0.166738
Pb      15.24692     15.32716      4.35026         0.478175      0.315690     -0.034493
Pb       0.13601      0.01888     17.40171        -0.843675     -0.017261      0.457039
Pb       3.97259      3.89068      8.56877        -0.706778     -0.262979      0.954453
Pb       3.78097     15.26454      8.74212         0.126198      0.110511     -0.328460
Pb       0.16164      3.69504      8.65857        -0.816901      0.348263      0.983590
Pb       0.17800     15.29773      8.57446        -1.128142      0.211747      0.937324
Pb       3.89359      3.94790     13.07469        -0.673577     -0.313134      0.741169
Pb       4.02299     15.34504     13.23074        -0.775462      0.119977     -0.102900
Pb      15.24313      3.88723     12.93929         0.273509     -0.319953      0.488105
Pb      15.31489      0.02757     12.99725         0.607898      0.018635      0.713961
Pb       3.78237      7.65744      4.31635         0.489138     -0.514748      0.128858
Pb       3.85970      7.78327     17.43717         0.098083     -0.215768      0.038876
Pb      15.18665      7.44129      4.29496        -0.125046      1.403881      0.478174
Pb       0.20880      7.65012     17.41838        -1.016914      0.165106     -0.148402
Pb       3.79135      7.57955      8.64965         0.419549      0.251840      0.404147
Pb      15.29876      7.70764      8.63725         0.224761     -0.282912      1.073547
Pb       3.82733      7.83038     13.08944         0.173738     -0.712789      0.086037
Pb      15.31101      7.74651     12.91284         0.198309     -0.121431      0.328372
Pb       3.85964     11.40702      4.36103         0.305569      0.177339      0.013243
Pb       3.70249     11.43798      0.00074         0.495658      0.329092      0.147149
Pb      15.33990     11.40287      4.28953        -0.135481     -0.163342      0.756373
Pb       0.08965     11.38540      0.09383        -0.061134      0.033602     -0.782248
Pb       3.73269     11.48818      8.66830         0.619013     -0.059424      0.072731
Pb       0.10650     11.62739      8.59573        -0.656142     -0.647165      0.581702
Pb       3.73845     11.58831     13.00069        -0.096028     -0.396522      0.634037
Pb      15.11853     11.43466     12.98587         0.747235     -0.310663      0.760058
Pb       7.57276      3.95757      4.24601         0.349354     -0.814603      0.811372
Pb       7.70595      3.83005     17.34601        -0.070453      0.027432      0.309957
Pb       7.55875     15.33694      4.20212         0.624650      0.310966      0.745577
Pb       7.81878     15.25658      0.00790        -0.269337      0.408549      0.104020
Pb       7.70981      3.77584      8.66974        -0.025974      0.269704      0.081275
Pb       7.69765      0.06641      8.68204        -0.233055     -0.513697     -0.164221
Pb       7.49226      3.66257     13.01969         0.849936      0.399782      0.294808
Pb       7.72481     15.06008     13.13232        -0.536871      1.057368      0.324761
Pb       7.60266      7.78923      4.35844        -0.058203     -0.501175      0.314302
Pb       7.77217      7.50426     17.36405        -0.506869      0.841997      0.219007
Pb       7.64262      7.60274      8.70577        -0.206891      0.355192      0.158927
Pb       7.75236      7.62408     13.06517        -0.711310      0.364973      0.087259
Pb       7.66139     11.50356      4.25844        -0.069500      0.083633      0.846622
Pb       7.69136     11.44888     17.32296        -0.099675     -0.041902      1.080484
Pb       7.76508     11.43816      8.79628        -0.922856     -0.088282     -0.391286
Pb       7.57932     11.53419     13.07245        -0.035481     -1.074225      0.369488
Pb      11.58472      3.91530      4.36958        -0.629001     -0.218854     -0.025586
Pb      11.27570      3.78073     17.32387         0.616342      0.327541     -0.066975
Pb      11.49901      0.14441      4.30398        -0.554176     -0.109667      0.520808
Pb      11.69695      0.04977     17.32742        -0.399777      0.033752     -0.049015
Pb      11.68841      3.70157      8.68029        -0.415397      0.045982      0.602651
Pb      11.51229     15.33041      8.63509         0.039071      0.212840      0.626427
Pb      11.41363      3.91372     12.88197        -0.089015     -0.436625      0.663540
Pb      11.42117     15.29986     13.09817         0.061422     -0.027124     -0.098983
Pb      11.53372      7.67691      4.38256         0.216667      0.169929     -0.040723
Pb      11.43143      7.66624     17.32390         0.189893      0.072895      0.622181
Pb      11.46206      7.59059      8.65952         0.229002      0.218038      0.450796
Pb      11.62301      7.69759     12.97563        -0.030327      0.015430      0.271641
Pb      11.39384     11.56639      4.36715         0.130630     -0.415191      0.309403
Pb      11.64231     11.57442     17.40168        -0.489998     -0.381957      0.489907
Pb      11.34681     11.52641      8.75599         0.731395     -0.201758     -0.374973
Pb      11.39368     11.57780     13.04250         0.357626     -0.385171      0.133734
Ti       1.90406      1.89848      2.29723        -0.508395     -0.315850      0.636101
Ti       1.91961      1.98713     15.41029        -0.535496     -0.171876     -1.090182
Ti       1.79782     13.38529      2.38351         0.771046      0.461854      0.334559
Ti       1.86872     13.52509     15.48511         1.048956     -1.594700     -0.557356
Ti      13.43201      1.92943      2.32377        -0.049942      0.549393     -0.524789
Ti      13.42522      1.98037     15.22528        -0.875847     -0.410413      0.049055
Ti      13.37166     13.47798      2.43814        -0.425642     -0.784077     -0.731322
Ti      13.47443     13.41766     15.40856        -0.328449     -0.318553     -0.404486
Ti       1.91605      1.89651      6.62336         0.259329     -0.194532     -1.137439
Ti       1.89122     13.33537      6.56983         0.012552      0.811016     -0.901482
Ti      13.43932      1.80548      6.72803        -0.002540      0.581969     -0.455309
Ti      13.34234     13.34132      6.67281         0.529677      1.121592      0.219557
Ti       1.93496      1.92439     11.11075        -0.301963     -0.510639      0.171902
Ti       1.86939     13.44613     11.09418         0.177227     -0.381875     -0.160971
Ti      13.36814      1.79140     11.08337         0.279112      0.641717     -1.122008
Ti      13.42640     13.40358     11.10405        -0.780569     -0.607437     -2.020087
Ti       1.84154      5.69807      2.27378         0.485292     -0.300593     -0.497053
Ti       1.93696      5.81036     15.39055        -0.560572     -0.032789      0.415977
Ti      13.33613      5.76523      2.26396        -1.119424      1.164883      0.165672
Ti      13.41868      5.77102     15.38155        -0.006084      0.073570     -0.701488
Ti       1.83248      5.72470      6.66605         0.873045      0.724579     -0.029375
Ti      13.44290      5.68157      6.82677        -0.364711      0.000273     -0.558585
Ti       1.94866      5.70432     11.03489        -0.027776      0.621741     -0.518030
Ti      13.46797      5.66031     11.00579        -0.716033      0.851174     -2.078782
Ti       1.88612      9.51504      2.47943         0.129386      0.241193     -1.835541
Ti       1.91327      9.58081     15.33229        -0.568082      0.647027     -0.508662
Ti      13.35448      9.66732      2.32609         0.576017     -1.536988      0.901790
Ti      13.39417      9.51796     15.45489         0.706956      0.737812     -0.911203
Ti       1.95598      9.47660      6.66973        -0.528575      0.265711      0.073781
Ti      13.42509      9.57422      6.78380        -0.132139     -0.288389     -0.621069
Ti       1.97669      9.56881     10.98783        -0.817948      0.014711      0.618085
Ti      13.43949      9.59330     10.90308        -0.016509     -0.267827     -0.569921
Ti       5.74408      1.92322      2.25394         0.389085      0.253413     -0.487363
Ti       5.75438      1.91663     15.53893         0.549763     -0.715548     -1.424766
Ti       5.62342     13.40627      2.37399         1.585039     -1.256634     -1.226645
Ti       5.76023     13.38144     15.48429        -0.649274     -0.207641      1.367132
Ti       5.66609      1.84542      6.69511         0.814523      0.099259     -1.413951
Ti       5.68480     13.37141      6.67312         0.599033     -0.354195      1.267149
Ti       5.64836      1.83109     11.10369         0.178321      0.271143     -0.024632
Ti       5.68559     13.39307     11.07686         0.140293      0.333602     -0.653582
Ti       5.70597      5.73883      2.19679        -0.111181      0.008479     -0.065138
Ti       5.73254      5.73076     15.46472        -0.235970      0.928747     -0.098119
Ti       5.72247      5.75514      6.65436         0.329219      0.073769     -0.488254
Ti       5.71182      5.74888     11.08351         0.423764      0.702054     -0.435666
Ti       5.79267      9.56262      2.28648        -0.477754      0.203859     -0.107237
Ti       5.74944      9.54454     15.45772         0.201217      0.233338     -0.149510
Ti       5.76150      9.56617      6.70054         0.493763      0.238432      0.576656
Ti       5.70755      9.58649     11.03315         1.245041     -0.480325     -0.628522
Ti       9.56841      1.98081      2.35908        -0.712648     -0.359941      0.458861
Ti       9.53077      1.93485     15.31721         0.237393      0.158185     -1.184626
Ti       9.55690     13.44652      2.36966        -0.669821      0.145406     -0.474852
Ti       9.62128     13.41315     15.46643         0.189663      0.707411     -1.144454
Ti       9.55527      1.93095      6.68531         0.041688      0.407532     -1.494465
Ti       9.50742     13.43028      6.69104        -0.546924     -0.096623     -0.985274
Ti       9.45497      1.77538     11.10068         0.801311      0.983068      0.221619
Ti       9.53686     13.36325     11.10149        -0.086806      0.972452      1.173348
Ti       9.51347      5.81007      2.39205         0.628083     -0.778608     -0.741563
Ti       9.58313      5.86214     15.27489         0.005883     -0.742802      0.555134
Ti       9.60631      5.70371      6.77622        -1.118170     -0.085082      1.184388
Ti       9.58516      5.77541     10.98689        -0.539754     -1.266181     -0.111925
Ti       9.58037      9.55846      2.36083         0.587852      0.578807     -1.246904
Ti       9.58214      9.69687     15.38809        -0.301578     -1.424648     -0.452138
Ti       9.56215      9.53557      6.73885        -0.576231      0.328664     -0.174889
Ti       9.57416      9.53988     11.10910        -0.850795      0.398635     -1.175936
O       1.77772      1.96149      0.53826        -0.063867     -0.214563     -0.178138
O       1.84814      1.92455     13.61364         0.089187      0.102067      1.772234
O       1.88601     13.43165      0.63142        -0.295387     -0.067527     -0.050414
O       2.00354     13.48251     13.72476        -0.400937     -0.154907      0.696784
O      13.35669      1.93820      0.52613         0.250846      0.006522      1.118208
O      13.48473      1.97759     13.42434        -0.259543     -0.080901      1.284013
O      13.23654     13.34783      0.66466         0.366315      0.492573      0.406668
O      13.31548     13.42652     13.63421         0.371962     -0.360240      0.655518
O       2.04988      1.89172      4.83039        -0.554903      0.020731      1.411574
O       1.84672     13.38993      4.77926         0.081265     -0.021678      0.929264
O      13.44829      1.76631      4.92949        -0.039269      0.350272     -0.023210
O      13.39909     13.46802      4.89886        -0.009525     -0.057681      0.410771
O       1.82227      1.81695      9.33004         0.484946      0.024007      0.397737
O       1.93450     13.43818      9.26533        -0.123080     -0.108524      0.890283
O      13.47442      1.89345      9.25094        -0.350830     -0.305361      1.833223
O      13.40138     13.39264      9.28020        -0.037461     -0.167725      1.329811
O       1.82937      5.71080      0.48061         0.068605      0.206892      1.306437
O       2.06872      5.92661     13.68155        -0.669567     -0.511205     -1.087092
O      13.23754      5.77639      0.55071         0.192972     -0.325132     -0.913088
O      13.41861      5.69138     13.55481        -0.036833      0.314792      1.302555
O       1.97173      5.89773      4.89121        -0.531092     -0.782083      0.389616
O      13.36454      5.80810      4.98905         0.210003     -0.231373      1.006113
O       1.96825      5.59640      9.26862         0.142143      0.612913      0.757381
O      13.46413      5.64123      9.16892        -0.264246     -0.105192      1.181155
O       1.99993      9.61573      0.60715        -0.563046     -0.548767      1.425964
O       1.88102      9.54812     13.53642         0.135077      0.027889      0.678301
O      13.35910      9.72559      0.58955         0.173017     -0.068444     -0.655528
O      13.50841      9.52167     13.63595        -0.393396     -0.022253      1.056877
O       1.99216      9.49823      4.89766        -0.127765     -0.136924     -0.393186
O      13.49317      9.52428      5.00436        -0.316005     -0.050040      0.836803
O       2.02230      9.68094      9.24904        -0.299635     -0.245634     -0.703068
O      13.48186      9.63390      9.10090        -0.429233      0.229209      1.200864
O       5.63816      1.89821      0.46337         0.704022      0.087189      0.425946
O       5.83830      1.75857     13.71797        -0.374009      0.489274      1.331251
O       5.69853     13.34949      0.60257         0.177076      0.053262      0.307976
O       5.71798     13.42753     13.73107        -0.064346     -0.138667     -0.022751
O       5.76059      1.74394      4.89404        -0.714093      0.358509      1.040729
O       5.67497     13.26003      4.93819         0.052434      0.636113     -0.166188
O       5.58185      2.04826      9.35799         0.232500     -0.808487     -0.242568
O       5.65724     13.46433      9.31702        -0.134386     -0.037494      0.416465
O       5.67834      5.75818      0.41502         0.057975     -0.242759      0.592909
O       5.56393      5.78935     13.71324         0.697108     -0.030170     -0.163653
O       5.58905      5.79527      4.88470         0.495083     -0.254643      0.327876
O       5.61310      5.67060      9.29431         0.233515      0.052000      0.691568
O       5.70863      9.61457      0.52028         0.034176     -0.131486      0.413380
O       5.70085      9.65120     13.70343        -0.044523     -0.369115     -0.020217
O       5.80083      9.60604      4.93268        -0.101465     -0.437044      0.184329
O       5.84112      9.42330      9.26799        -0.446374      0.870075      0.438659
O       9.30271      1.99249      0.60254         1.047185      0.146780     -0.064049
O       9.50247      1.94969     13.50460         0.042088     -0.251005      1.235223
O       9.43703     13.45698      0.57352         0.739596      0.067301      0.774730
O       9.61258     13.38858     13.62081        -0.040237      0.080528      1.269504
O       9.59692      1.96167      4.87638         0.271322     -0.164782      1.320931
O       9.46759     13.29047      4.88982         0.404009      0.626713      1.555482
O       9.56008      1.86270      9.32603        -0.396558     -0.286200      0.411635
O       9.36854     13.57532      9.41109         0.532134     -0.363462     -1.752123
O       9.52062      5.77651      0.58494         0.270730     -0.172221      0.980655
O       9.56725      5.99531     13.55061         0.289241     -0.606232     -0.489653
O       9.48009      5.63762      5.07647         0.422581      0.240196     -1.847211
O       9.51607      5.69899      9.18931         0.204945      0.220564      1.582884
O       9.65072      9.60388      0.56759        -0.317170     -0.259194      1.271145
O       9.54934      9.52610     13.60540         0.329505      0.420917      0.444360
O       9.49132      9.57276      4.97047         0.143832     -0.237408     -0.176280
O       9.43291      9.51979      9.25888         0.742984      0.467402      1.922574
O       3.85339      1.89494      2.56046        -0.390549      0.141945      0.501841
O       3.76698      1.84602     15.84946         0.322301      0.295456     -0.371500
O       3.83672     13.34369      2.75732        -1.626539      0.078085      0.112129
O       3.82993     13.44160     15.98809         0.133447     -0.095750     -0.762106
O      15.32254      1.95237      2.75700        -0.706860     -0.441232     -0.073005
O      15.21487      1.89572     15.75867         1.302938      0.435632      0.061764
O      15.26481     13.40383      2.70417         0.289109      0.361488      0.154529
O      15.34190     13.37093     15.91394        -0.249812      0.228076     -0.206446
O       3.76086      1.86170      7.10280        -0.029993      0.290473     -0.101609
O       3.75220     13.30888      7.09521         0.494844      0.751110     -0.236266
O      15.33696      1.89768      7.18994         1.214488     -0.557805     -0.955563
O      15.30413     13.39416      7.06761         0.572582      0.028101     -0.419957
O       3.78261      1.86184     11.63585         0.338028     -0.707633     -0.459383
O       3.77325     13.49051     11.61324         0.317188     -0.230170     -0.729917
O       0.01784      1.97441     11.52421        -0.501019     -0.321511     -0.416984
O      15.31264     13.25502     11.52698         0.312438      0.487493     -0.533813
O       3.81589      5.60406      2.73821        -0.782496      0.389263     -0.859691
O       3.78736      5.70176     15.74355         0.322478      0.379541      0.773944
O      15.18038      5.78140      2.69128         2.540581     -0.168551     -0.146258
O      15.27902      5.86840     15.75390         0.181263     -0.499902      0.113091
O       3.81224      5.83896      7.01839        -0.235900     -0.402470      0.255564
O      15.31167      5.78175      7.16404         0.686232     -0.084118     -0.693482
O       3.86118      5.77851     11.60749        -0.448014      0.258622     -0.834620
O      15.25240      5.78749     11.43038         2.037007     -1.025455      0.028181
O       3.94935      9.66369      2.75254        -1.719819     -0.897923      0.046623
O       3.80228      9.54221     15.77073         0.142220     -0.003086      0.191119
O       0.00190      9.46761      2.80506         0.308826      0.163947     -0.357420
O       0.02320      9.53854     15.79005        -0.521244      0.348779      0.438712
O       3.80362      9.55745      7.06509         0.613319     -0.259166      0.063310
O      15.35880      9.47088      7.07636         0.316826      0.840701     -0.120556
O       3.83609      9.51285     11.40119        -0.261845      0.413340      0.063394
O      15.30988      9.70414     11.38129        -0.151804     -0.287631     -0.217195
O       7.64219      1.92491      2.86304        -0.592355     -0.127999     -0.754865
O       7.67900      1.91790     15.86840        -0.880130      0.092202     -0.268917
O       7.62757     13.40755      2.79623         0.343931      0.061510     -0.413205
O       7.75554     13.38498     15.85772        -1.061760      0.400075     -0.303954
O       7.63825      2.01509      7.01096        -0.700885     -0.853092      0.519911
O       7.64906     13.40969      7.23103        -0.227314      0.426968     -0.642542
O       7.62841      1.86742     11.48576        -0.616833      0.069490     -0.397709
O       7.59669     13.26544     11.56981        -0.034491      1.135071     -0.314488
O       7.61249      5.72196      2.69941         0.442359      0.217327     -0.105634
O       7.70025      5.75620     15.74903        -0.955695      0.099754      0.012572
O       7.63992      5.74685      7.11343        -0.274704     -0.502741      0.010785
O       7.61016      5.75771     11.54434         0.030314     -0.252988     -0.674972
O       7.66536      9.52524      2.76007         0.356089      0.114301     -0.306139
O       7.69759      9.52162     15.79068         0.188097      0.340868      0.132806
O       7.68189      9.59040      7.18153        -0.558197     -0.216114     -0.270417
O       7.62141      9.61691     11.56451         0.918688      0.144208     -0.322462
O      11.52308      1.98492      2.68804        -0.010311     -0.093194      0.083700
O      11.45630      1.97024     15.69004         0.499810     -0.018206      0.142019
O      11.46378     13.41391      2.91616        -0.054728      0.052191     -0.662517
O      11.47877     13.42359     15.87711         0.819048      0.441297     -0.147297
O      11.53508      1.89493      7.14699        -0.411539      0.087624     -0.341129
O      11.46039     13.44342      7.13947        -0.492327     -0.211479     -0.173677
O      11.47193      1.70596     11.43702         0.261439      0.511813     -0.208299
O      11.41846     13.42687     11.51039         0.721309      0.196972     -0.255729
O      11.46479      5.78701      2.82288        -0.661116     -0.320257      0.032888
O      11.45011      5.89349     15.69331         0.550938     -0.823099      0.172927
O      11.47434      5.61302      7.18591         1.032551      0.447528     -0.331926
O      11.57320      5.81390     11.49254        -1.517087     -0.118042     -0.724534
O      11.53120      9.57860      2.83902        -0.998135      0.202292     -0.177670
O      11.45035      9.57059     15.81964         0.523630      0.057023     -0.302226
O      11.41132      9.43581      7.08642         1.542645      0.940464      0.310069
O      11.55796      9.61290     11.45782        -1.220903     -0.454803     -0.511644
O       1.76658      3.75094      2.77306         0.538118      1.598866     -0.170804
O       1.88860      3.89911     15.93287        -0.599622     -1.229688     -0.986197
O       1.85143      0.01357      2.77070         0.081419     -0.619952     -0.379995
O       1.84011      0.01423     15.93341         0.226848      0.509481     -0.616093
O      13.46450      3.94320      2.80680        -0.547018     -1.785066     -0.213038
O      13.37018      3.85086     15.85668        -0.106683      0.134408     -0.699754
O      13.32374      0.02331      2.76880         0.488115     -0.087621     -0.386862
O      13.44425      0.00629     15.72455        -0.444472     -0.084654      0.072724
O       1.86143      3.89422      7.09241         0.332716     -1.209185     -0.818036
O       1.87091     15.32190      7.04157         0.405222     -0.162259     -0.460738
O      13.56297      3.72171      7.10230        -0.730798      1.214355     -0.242612
O      13.37134      0.00487      7.17104         0.440334     -1.462301     -0.380720
O       2.05222      3.82875     11.40258        -0.715069      0.116718      0.294782
O       1.82129     15.26732     11.58315        -0.006599      0.463675     -0.830555
O      13.31862      3.79664     11.44300         0.240519     -0.568995     -0.334185
O      13.47317     15.22776     11.53777        -0.091910      1.394876     -0.380215
O       1.96917      7.54773      2.71570        -0.127902      0.549676     -0.355276
O       1.88070      7.69827     15.79820         0.434257     -0.090602      0.348441
O      13.36670      7.71224      2.75539        -0.056986     -0.361917      0.016261
O      13.39964      7.71010     15.94859        -0.069464     -0.409737     -0.523185
O       1.91259      7.63234      7.21489        -0.136295     -0.004766     -0.521477
O      13.44046      7.62588      7.28689        -0.707318     -0.129716     -0.914209
O       1.80980      7.62880     11.36143         0.401203      0.315692     -0.093390
O      13.49648      7.64340     11.29974        -0.460256      1.039346      0.054088
O       1.80331     11.44011      2.65214         0.205917      0.302333      0.408888
O       1.93087     11.47034     15.88497        -0.270559      0.320657     -0.226154
O      13.51667     11.45786      2.89869        -0.761250      0.929144     -0.562125
O      13.38283     11.49408     15.87541         0.310936      0.144606     -0.418643
O       1.99970     11.48762      6.99126        -1.023873     -0.479723      0.132108
O      13.39911     11.52627      7.11846        -0.303933     -0.673428     -0.219548
O       1.95597     11.42841     11.41516         0.155649      1.263358      0.108345
O      13.23145     11.50138     11.50590         0.791571     -0.173355     -0.276081
O       5.77400      3.83008      2.61651        -0.219538     -0.523375      0.177579
O       5.67423      3.85002     15.81529         0.297595     -0.967423     -0.138089
O       5.69611     15.31453      2.65090         0.192563      0.477791      0.085639
O       5.77125     15.29233     15.94411         0.072905      0.246560     -0.423919
O       5.68221      3.80629      7.03326         0.012620      0.015378     -0.221870
O       5.58943     15.30213      7.13993         0.580966      0.179585     -0.227888
O       5.61338      3.71466     11.56918         0.712468      1.185359     -0.341762
O       5.78340     15.31673     11.56980        -0.214808     -0.367097     -0.357686
O       5.74052      7.56521      2.63460        -0.216445      1.190844      0.139026
O       5.73594      7.65728     16.00583        -0.055178     -0.132901     -0.849177
O       5.82995      7.64948      7.08769        -0.549914      0.082705     -0.132795
O       5.77808      7.73486     11.38311        -0.272257     -1.472456      0.422742
O       5.75095     11.43511      2.90631         0.193532      0.460457     -1.047375
O       5.84863     11.41981     15.90170        -0.641531      1.246959     -0.485237
O       5.74841     11.45403      7.16913        -0.176884      0.458882     -0.166849
O       5.74955     11.53834     11.50833        -0.881156     -0.487168     -0.202022
O       9.56587      3.80236      2.83292         0.045528      1.400639     -0.309418
O       9.45803      3.86999     15.74633         0.815192     -0.061414     -0.003537
O       9.52168      0.05116      2.75004         0.438844     -0.850004     -0.202755
O       9.61483      0.09056     15.80494        -0.176266     -1.140026     -0.005836
O       9.55940      3.76766      7.21904         0.270271      0.309603     -0.193734
O       9.52747      0.06389      7.14665         0.072908     -1.167211     -0.254720
O       9.48253      3.85864     11.47698         0.622632      0.110174     -0.432540
O       9.48041     15.25463     11.62525         0.017428      0.645897     -0.546031
O       9.55177      7.65565      2.87050         0.056870      0.113802     -0.347291
O       9.53567      7.66595     15.81903         0.108134      0.742702     -0.042068
O       9.59222      7.66321      7.23043        -0.291843     -0.905671     -0.664636
O       9.53213      7.65552     11.48861         0.335275      0.292003     -0.670412
O       9.59207     11.49493      2.79877        -0.035969     -0.195548     -0.508370
O       9.62698     11.56518     15.84544        -0.149125     -0.762365     -0.376361
O       9.53189     11.51218      7.14455         0.569165      0.391056      0.277809
O       9.50991     11.53196     11.44369         0.601315     -1.697275     -0.072086
