  # total energy = -7881.43695738 
CRSYTAL
PRIMVEC
    15.3600000000000000    0.0000000000000000    0.0000000000000000
     0.0000000000000000   15.3600000000000000    0.0000000000000000
     0.0000000000000000    0.0000000000000000    17.440000000000000
PRESSURE
1.09062 1.04523 0.104115 0.083563 0.362541 0.05358
PRIMCOORD
320 1
Pb       3.73805      3.84306      4.26953         0.144429      0.199435      0.296973
Pb       3.80032      3.84464     17.35382         0.254198      0.551091     -0.302476
Pb       3.81657      0.02592      4.23893         0.103966     -0.409716      0.564824
Pb       3.80352      0.07372      0.05396         0.202769     -0.612731     -0.716731
Pb      15.29578      3.80322      4.35316         0.365935      0.255340     -0.527004
Pb      15.32101      3.88025     17.41294         0.022777      0.341482     -0.751796
Pb      15.25485     15.26375      4.29221         0.490501      0.339022      0.304668
Pb      15.28581     15.29659      0.03183         0.177073     -0.227456     -0.449071
Pb       3.81159      3.77419      8.74500         0.376190      0.269279     -0.556156
Pb       3.84639     15.30768      8.74821        -0.070976     -0.187460     -0.652681
Pb       0.03595      3.70628      8.69132        -0.359806      0.504274     -0.245012
Pb       0.01693      0.03077      8.65103        -0.180241     -0.632121      0.056890
Pb       3.66397      3.86907     13.03818         0.667695     -0.928275      0.468891
Pb       3.79995     15.24264     13.14068        -0.112110      0.501837     -0.187671
Pb      15.29358      3.81243     13.03710         0.272120      0.217948      0.130807
Pb       0.02957      0.03760     13.01596         0.096741     -0.547475     -0.481289
Pb       3.82111      7.62716      4.27831         0.268587      0.077420     -0.265350
Pb       3.76835      7.67796     17.39153         0.284606      0.409563      0.040732
Pb      15.32249      7.63158      4.38703        -0.124186     -0.138995     -0.728957
Pb      15.25939      7.71911     17.34249         0.479972     -0.251388      0.160515
Pb       3.93682      7.58348      8.77778        -0.675584      0.603275     -0.255633
Pb       0.04856      7.62485      8.74816        -0.189323     -0.203384     -0.726997
Pb       3.77264      7.69632     13.02445         0.028483      0.568974     -0.012085
Pb       0.04882      7.66146     12.99176        -0.033733      0.064893      0.010210
Pb       3.75706     11.49873      4.25048         0.216803      0.106916      0.141806
Pb       3.89634     11.47131     17.43910        -0.059917     -0.179180     -0.368869
Pb      15.30548     11.54342      4.30967         0.318598     -0.403855     -0.016456
Pb      15.33605     11.50658     17.39600         0.428207     -0.007820     -0.043956
Pb       3.74692     11.54168      8.65376         0.277093     -0.381832     -0.343933
Pb      15.32441     11.40671      8.65019        -0.151374      0.847837     -0.489392
Pb       3.78641     11.54762     13.09750         0.425197     -0.423921      0.056067
Pb      15.28003     11.48226     13.15579         0.410592      0.169306     -0.694386
Pb       7.67035      3.79563      4.42237         0.069499      0.339554     -0.666766
Pb       7.63262      3.90050     17.31581         0.810459     -0.233097     -0.092737
Pb       7.70092      0.09459      4.23106        -0.441588     -0.318237     -0.240416
Pb       7.72920      0.00391     17.42758        -0.045176     -0.178660     -0.512811
Pb       7.72135      3.66353      8.77025        -0.428828      0.569687     -0.313846
Pb       7.62657     15.21906      8.63787        -0.074332      0.236122      0.040374
Pb       7.63704      3.78409     13.19265        -0.103286     -0.377319     -0.765386
Pb       7.58300     15.29950     13.15160         0.480148     -0.092468     -0.128957
Pb       7.59658      7.66224      4.31375         0.374706     -0.458434      0.085074
Pb       7.76703      7.60896     17.40997        -0.731281      0.462942     -0.248070
Pb       7.54140      7.69488      8.68367         0.553919     -0.027853     -0.503957
Pb       7.54606      7.61680     12.99828         0.126095      0.325669     -0.259458
Pb       7.67572     11.51933      4.34169        -0.236564      0.477889     -0.734051
Pb       7.75321     11.49847      0.06903        -0.027953     -0.142005     -0.480565
Pb       7.55772     11.42252      8.68352         0.160427     -0.149087     -0.198193
Pb       7.61706     11.39845     13.10772        -0.136058      0.535629     -0.119882
Pb      11.45100      3.82337      4.39608         0.117178      0.244353     -0.306124
Pb      11.54232      3.82263     17.34719        -0.494866      0.201539     -0.604090
Pb      11.37661      0.03629      4.28431         0.221384     -0.274689     -0.573582
Pb      11.61339     15.34817     17.36118        -0.131349     -0.235203      0.014181
Pb      11.49055      3.80789      8.73994         0.220445      0.226328     -0.242659
Pb      11.49073     15.21643      8.64277         0.781754      0.206977     -0.073658
Pb      11.52215      3.84053     13.08172        -0.124664     -0.110061     -0.422991
Pb      11.55608     15.32756     12.95888        -0.096559      0.042116     -0.130808
Pb      11.42908      7.78988      4.32187         0.338974     -0.811191      0.156372
Pb      11.55661      7.58508     17.41154        -0.091302      0.598689     -0.533003
Pb      11.41646      7.59928      8.73415        -0.116897     -0.361804     -0.906933
Pb      11.55841      7.73330     12.87967        -0.388804     -0.165587      0.460072
Pb      11.48597     11.48167      4.45135         0.279917      0.528465     -0.843292
Pb      11.57065     11.52363      0.01409        -0.368650     -0.344953     -0.120599
Pb      11.49506     11.53153      8.74053         0.189958     -0.075468     -1.131572
Pb      11.44026     11.45244     12.99737        -0.169597      0.324498     -0.039714
Ti       1.95654      1.94668      2.23396        -0.905360      0.032391      1.668913
Ti       1.90837      1.90219     15.45610        -0.663565      0.308749     -1.548369
Ti       1.95136     13.49758      2.32880        -0.047887     -1.186586     -0.936490
Ti       1.95893     13.43416     15.41260         0.125714     -0.335141      0.405068
Ti      13.50113      1.87674      2.30327        -0.927587      0.310293      0.223437
Ti      13.45113      1.91156     15.33795         0.838674     -0.025324      0.736159
Ti      13.49288     13.39414      2.32098        -1.110398     -0.662201     -0.005989
Ti      13.47050     13.40881     15.37013         0.283815     -0.029401      0.295839
Ti       1.92162      1.89136      6.63875        -0.035631      0.218567     -1.476858
Ti       1.96632     13.42310      6.64461        -0.040014     -0.086662      0.572910
Ti      13.42239      2.01873      6.62049        -0.106153     -1.167959      2.256310
Ti      13.49544     13.52330      6.63713         0.310702     -1.194411      0.416545
Ti       1.90877      1.94056     11.02582         0.868194     -0.910770      0.574522
Ti       2.05173     13.46799     11.05841        -2.860804      0.233060     -0.593795
Ti      13.47468      1.94630     10.99393        -0.274944     -0.477602     -1.261898
Ti      13.46435     13.41758     11.05315         1.349706      1.042191     -1.577007
Ti       1.88415      5.78431      2.31495        -0.366340     -0.541940     -0.764115
Ti       1.94181      5.76953     15.38554        -1.041698      0.166052      1.010654
Ti      13.38727      5.76377      2.25427         1.036340     -0.215374      1.262580
Ti      13.41677      5.75969     15.29392         0.553850     -0.052648     -0.299327
Ti       1.95035      5.69912      6.62366        -0.976131      0.609289      0.547566
Ti      13.48882      5.71300      6.72529        -0.862476      0.999692      1.617699
Ti       1.95506      5.75108     11.04027        -0.928359      0.068929     -0.598696
Ti      13.43697      5.79461     11.07151         0.113441     -0.527543     -0.305946
Ti       1.90199      9.57647      2.34101        -0.134537      0.161602     -1.315228
Ti       1.89180      9.58271     15.39119         1.187052     -0.157976     -0.213133
Ti      13.38343      9.52355      2.33380         1.083696      0.576457     -0.540358
Ti      13.42600      9.61774     15.34610        -0.253384     -0.516716     -0.038096
Ti       1.84724      9.53651      6.63747         1.101160      0.830906      0.758484
Ti      13.38773      9.54731      6.64722         0.235070      1.051868      0.232924
Ti       1.86064      9.70456     11.01898         0.648965     -0.957252      1.058956
Ti      13.41332      9.64355     10.96972         0.649898     -0.297998     -0.008954
Ti       5.70448      2.00710      2.27807         1.462310     -0.505279      0.943032
Ti       5.74039      1.91945     15.40184         0.846921      0.134539      0.550987
Ti       5.72124     13.49398      2.22370         1.053458     -0.359352      0.560003
Ti       5.79858     13.42561     15.58353        -0.212572     -0.811774     -1.553875
Ti       5.73859      1.93953      6.64125         0.355868     -0.168265      1.016641
Ti       5.81491     13.41629      6.57729        -1.220291     -0.162054     -0.537541
Ti       5.75678      1.81655     11.04920         0.392811      1.411033      1.053511
Ti       5.82615     13.42103     11.09767        -0.037629     -1.006761     -0.727990
Ti       5.81445      5.74292      2.29125        -0.090718      0.178246     -0.012701
Ti       5.74647      5.78210     15.34284         0.057603      0.252052      0.759605
Ti       5.69189      5.81969      6.70529         1.021580     -1.063104      0.679967
Ti       5.66995      5.65409     11.09307         1.442915      0.098327     -0.813615
Ti       5.79449      9.61924      2.38227        -0.870759     -0.247713     -1.676946
Ti       5.81968      9.56325     15.38842        -0.548282      0.116449      0.668717
Ti       5.64952      9.64995      6.59033         0.346004     -0.114390      0.614749
Ti       5.65080      9.59681     11.03306         0.107162      0.949278     -0.264999
Ti       9.59202      1.97426      2.26016        -0.497463     -1.027692      0.566199
Ti       9.71896      1.77677     15.36553        -1.360222      0.780940      0.929367
Ti       9.58932     13.48331      2.22132         0.439792     -0.478967      0.334186
Ti       9.66704     13.30582     15.40540        -1.250984      0.694989      0.234035
Ti       9.58948      1.86640      6.73124         0.403841      0.412105      0.177155
Ti       9.61366     13.40080      6.59716         0.414129     -0.907820      0.140854
Ti       9.66990      1.85124     11.01456        -1.056059      0.942237      1.212026
Ti       9.54904     13.39755     10.99884         0.421598      0.210746      0.563471
Ti       9.68984      5.76807      2.27482        -1.471554     -0.071755      1.094610
Ti       9.54893      5.84125     15.23878         0.501563     -1.478870      0.387461
Ti       9.55874      5.69963      6.69235         0.394158      1.225999      0.025466
Ti       9.54182      5.75853     11.15023         0.179645     -0.269883     -1.434502
Ti       9.57926      9.63493      2.30437         0.288540      0.203483      0.157272
Ti       9.63936      9.53432     15.32871        -0.643483      0.756693      1.281212
Ti       9.60487      9.59245      6.50407        -0.859992     -0.441234      3.555284
Ti       9.49636      9.61748     10.96179        -0.133012     -0.040011     -0.119623
O       2.11891      1.99612      0.49561        -0.425888     -0.199226     -1.075712
O       1.83641      2.00349     13.65380         0.104152     -0.353606      0.653680
O       1.98691     13.54584      0.55109        -0.078020     -0.197147     -0.047284
O       1.79940     13.59853     13.65984         0.520119     -0.622654     -0.925748
O      13.32918      1.73751      0.55926         0.297810      0.411416     -0.087430
O      13.48327      2.01420     13.59788        -0.091755     -0.300088     -0.789558
O      13.63045     13.39876      0.55786        -0.383335      0.254019     -0.891321
O      13.53047     13.48058     13.64090         0.016128     -0.004393     -1.053508
O       1.89108      2.02162      4.83234         0.101164     -0.591606      0.966296
O       2.10338     13.38164      4.90989        -0.413478      0.274643     -1.019341
O      13.53558      1.96912      4.90777        -0.312047      0.036066     -1.951082
O      13.54340     13.47374      4.87109        -0.281713     -0.171762     -1.293616
O       2.06210      1.88264      9.27137        -0.502212      0.245918     -0.607004
O       1.96070     13.65213      9.30501         0.556166     -0.651057     -0.536195
O      13.48840      2.00688      9.17119        -0.091824     -0.228241      1.166791
O      13.46786     13.49765      9.23247        -0.302484     -0.320254      0.685523
O       1.89151      5.82575      0.50688         0.059206     -0.504738      0.826666
O       1.86792      5.75957     13.66137         0.160371      0.165251     -1.954808
O      13.44746      5.79104      0.53383        -0.368128     -0.094676     -1.888741
O      13.54232      5.73657     13.50896        -0.346875      0.050754      0.103598
O       1.77828      5.72483      4.86718         0.615129      0.141772     -0.707045
O      13.30806      5.62555      5.05035         0.522807      0.090945     -2.659546
O       1.96185      5.63194      9.28143         0.051943      0.375789      0.063600
O      13.49106      5.76636      9.33114        -0.057775      0.092671     -1.122281
O       2.02231      9.45118      0.51737        -0.488452      0.281778      1.086836
O       1.90035      9.59237     13.58673         0.011838     -0.025861      0.602259
O      13.51493      9.46532      0.56550        -0.324448      0.210988     -1.009130
O      13.38667      9.56585     13.58339         0.103914      0.276224      0.035486
O       1.98072      9.70584      4.89405        -0.303063     -0.643957     -0.888770
O      13.35695      9.68051      4.84799        -0.016815     -0.311562     -0.135401
O       2.00656      9.67292      9.29326        -0.661158      0.042215     -0.964214
O      13.58964      9.78485      9.20218        -0.560611     -0.646791      0.482179
O       5.63926      1.99192      0.54846         0.125447     -0.005457     -0.933981
O       5.76203      2.16699     13.69728         0.001248     -0.894982     -0.873637
O       5.71111     13.56978      0.45820        -0.179471     -0.332900     -0.145946
O       5.89703     13.33799     13.75113        -0.317657      0.243513     -0.518528
O       5.95381      1.84930      4.90900        -0.542652      0.358486     -0.437124
O       5.75541     13.38044      4.78180         0.278791      0.069653      0.696604
O       5.77455      1.91177      9.30281        -0.026529     -0.154455     -0.648513
O       5.84576     13.50263      9.32587        -0.234334      0.019795      0.002733
O       5.82998      5.78007      0.52549         0.017850     -0.092666     -0.141006
O       5.73883      5.81340     13.60214         0.083180     -0.158964     -1.329281
O       5.79579      5.76466      4.97812        -0.191661      0.067531     -0.581077
O       5.55528      5.74501      9.30959         0.315373     -0.104053     -0.204798
O       5.79999      9.50004      0.59195         0.045318     -0.071582      0.282636
O       5.70564      9.64932     13.62721         0.202976     -0.021313     -0.591750
O       5.66582      9.60998      4.81978        -0.002899     -0.031923     -0.595174
O       5.65293      9.68822      9.25283         0.428757     -0.315421      0.176996
O       9.37515      2.02372      0.55326         0.943210     -0.385441     -1.822792
O       9.81792      1.76894     13.67200        -0.275157      0.365877     -1.574559
O       9.58253     13.40074      0.46011         0.268081      0.282968     -0.626717
O       9.46590     13.29320     13.68041         0.270704      0.093858     -1.207344
O       9.58219      1.83562      4.97479        -0.003493     -0.072753     -0.647947
O       9.55236     13.28315      4.81993         0.273602      0.513312      0.365135
O       9.62227      2.04722      9.27439         0.173287     -0.307272     -0.992903
O       9.65254     13.32581      9.24945         0.002696      0.285256     -0.683371
O       9.57309      5.70196      0.53572         0.313271      0.296948     -0.160933
O       9.50821      5.93382     13.47353        -0.016438     -0.236344     -0.573113
O       9.63020      5.72780      4.94469         0.008581     -0.178170     -0.948235
O       9.66795      5.77004      9.30848        -0.234087      0.009090      0.775868
O       9.59562      9.61925      0.56858        -0.065442     -0.173914     -0.658067
O       9.63781      9.64377     13.60025         0.175757     -0.081287     -0.817650
O       9.59501      9.68834      4.79668         0.465846      0.092248     -2.201626
O       9.37409      9.65857      9.16832         0.587740     -0.218933      0.954752
O       3.82617      1.89116      2.70447         0.408179      0.012810      0.128475
O       3.83430      1.93467     15.66918        -0.367447      0.427655      0.705323
O       3.86392     13.51932      2.68494        -0.071887     -0.163701      0.002214
O       3.82557     13.25291     15.69345         0.074578      0.617823      0.477834
O       0.07675      1.95033      2.59047        -1.042245     -0.048631     -0.090745
O      15.30817      1.90025     15.83308         0.802502     -0.266515      0.324662
O       0.05722     13.41186      2.69022        -0.877948     -0.361360      0.473138
O       0.08026     13.31124     15.80938        -0.590290      0.457941      0.393480
O       3.86141      1.96934      6.94474         0.199161     -0.256007      0.205020
O       3.88285     13.48103      7.02839         0.142426     -0.157641      0.424250
O      15.33563      1.89092      7.05556         0.745456      0.476193      0.071987
O       0.07403     13.48928      6.92268        -0.473635      0.350699      0.499534
O       3.83486      1.88531     11.48111         0.079279      0.628281      0.119745
O       3.85866     13.35952     11.45417         0.615198      0.180510      0.543529
O       0.00873      1.98837     11.40054        -0.104030     -0.342346     -0.056905
O       0.07164     13.64717     11.30627        -0.633854     -1.027469      0.810980
O       3.85746      5.72747      2.70609        -0.515515     -0.030340      0.098990
O       3.82742      5.72285     15.66693         0.356154     -0.059414      0.436243
O      15.31499      5.71783      2.65171         0.754641     -0.155848      0.466557
O      15.28065      5.62923     15.70769        -0.047034      0.610843      0.561075
O       3.78774      5.72127      7.11316         0.837912      0.168459     -0.196528
O       0.02158      5.73892      7.02265         0.713878      0.288687      0.611500
O       3.85406      5.61166     11.46228        -1.396174      0.491230      0.377077
O       0.03056      5.88424     11.36141        -0.074459     -0.390523      0.313746
O       3.83903      9.54512      2.58551        -0.428821     -0.124985      0.864951
O       3.92933      9.35856     15.69163        -0.741479      0.677553      0.460499
O      15.34308      9.57008      2.66973         0.687890      0.208404      0.629954
O       0.03731      9.58847     15.75964        -0.759134      0.035789     -0.007228
O       3.84146      9.65953      7.10202        -0.694141      0.117917     -0.149243
O      15.34640      9.63050      7.01790         0.293035     -0.063336      0.144359
O       3.78400      9.84382     11.42152         0.099180     -0.970065      0.327293
O      15.32279      9.58550     11.51171        -0.464632     -0.349668     -0.414596
O       7.67567      1.95943      2.73738        -0.663179      0.074910      0.158557
O       7.73193      1.86057     15.63439        -0.306785     -0.140417      0.453849
O       7.73086     13.43817      2.52024        -1.167017     -0.225732      0.485951
O       7.64239     13.50372     15.84762         1.369760     -0.346594      0.630405
O       7.71942      1.86205      7.14169        -0.230155      0.225652      0.099867
O       7.71122     13.43578      6.99090         0.668190     -0.227561      0.108588
O       7.67062      1.81737     11.46014        -0.252727      0.609674      0.234980
O       7.70435     13.31078     11.34481        -0.431776      0.853607      0.594499
O       7.74982      5.79027      2.79840         0.357292     -0.312029     -0.282046
O       7.68093      5.69157     15.66934         0.388928      0.540393      0.226172
O       7.65177      5.82678      7.10940        -0.100469      0.003875      0.209164
O       7.58079      5.79838     11.33154         1.052245      0.194114      0.517745
O       7.64694      9.57195      2.65979         0.913675     -0.058187      0.628305
O       7.75119      9.52296     15.70387        -0.150287      0.317711      0.260261
O       7.56880      9.64607      6.89916         1.073660     -0.123902      0.277219
O       7.67154      9.60959     11.44781        -0.636524     -0.062423     -0.115007
O      11.48876      1.76287      2.69514         1.068376      0.278569      0.149577
O      11.60483      1.91086     15.72245        -0.858662     -0.507642      0.919682
O      11.52426     13.48410      2.52823         0.215242      0.586035      0.655302
O      11.53837     13.25224     15.65971         1.084034      0.481319      0.612114
O      11.52740      2.05617      7.03915         0.041118     -0.497447      0.037732
O      11.58659     13.41537      6.93152        -1.181459      0.150501      0.523559
O      11.56350      1.90833     11.44129        -0.122420     -0.569325     -0.037547
O      11.51952     13.47944     11.36424        -0.042694     -0.071434      0.397549
O      11.53033      5.76643      2.65235        -0.431671      0.040487      0.349488
O      11.52995      5.74019     15.53148        -0.130465      0.331583      0.809736
O      11.54290      5.86626      7.00025        -0.439529     -0.139139      1.255408
O      11.51928      5.84446     11.37669        -0.704740     -0.413918      0.556921
O      11.56336      9.46319      2.57288        -1.167969      0.456840      0.753870
O      11.50672      9.57726     15.82628         0.898583      0.205156      0.020466
O      11.53643      9.60898      7.11908        -0.151442     -0.220586     -0.313931
O      11.49109      9.64481     11.43627         0.044225      0.182813     -0.669594
O       1.95154      3.78288      2.77487        -0.021940      0.648548     -0.656636
O       1.76251      3.90782     15.72625         0.955859     -1.675222      0.824745
O       1.83391     15.29279      2.73365         0.637395      1.999475      0.049409
O       2.02814     15.30970     15.72809        -0.305275      1.174883      0.585807
O      13.38945      3.87420      2.64112        -0.000684     -1.445530      0.196994
O      13.36499      3.75954     15.82885         0.361753      0.805694      0.017798
O      13.58527     15.30508      2.62075        -0.299360      0.892373      0.523917
O      13.48471     15.27055     15.82551        -0.282965      0.584182      0.091351
O       1.94540      3.86967      6.93291        -0.159050     -1.218102      0.744264
O       1.95593      0.04853      7.07264         0.171813     -0.086904     -0.067046
O      13.49526      3.87255      7.15896        -0.073366     -0.653710     -0.027905
O      13.42322      0.02886      6.96625        -0.159168      0.554405      0.408348
O       1.83626      3.80903     11.39814         0.446404      0.728340      0.335474
O       2.00737      0.01358     11.39437         0.087614      0.456735      0.817802
O      13.33568      3.81957     11.36538         0.545059      0.556089      0.443726
O      13.54782      0.00629     11.34370        -0.895387      0.566461      0.595419
O       1.92103      7.60692      2.74243        -0.177503      0.899692      0.374572
O       1.90435      7.64255     15.76930        -0.293010      0.269473      0.073034
O      13.54767      7.63578      2.65456        -0.502450     -0.218962      0.848805
O      13.46331      7.68939     15.69981        -0.138687     -0.276637      0.226410
O       1.96267      7.70531      7.09048        -0.298246     -0.563388     -0.094750
O      13.58241      7.73093      7.01189        -0.298417     -0.533569      0.416355
O       1.99436      7.68602     11.35751         0.171489     -0.153119      0.321549
O      13.31295      7.70441     11.27780         0.652366      0.887365      0.290833
O       1.86582     11.55051      2.73388         0.580679     -0.843911     -0.236591
O       2.05434     11.43303     15.87605        -0.598459     -0.237159     -0.255016
O      13.24393     11.47933      2.50400         0.975820      0.441100      0.967405
O      13.56825     11.52525     15.66688        -0.402090     -1.065482      0.631266
O       1.88614     11.52710      7.01579         0.367291      0.051248      0.495233
O      13.47181     11.57517      7.01549         0.073418     -0.462616      0.305313
O       1.78493     11.49033     11.48738         0.093576      1.729716      0.101939
O      13.50921     11.53047     11.41145        -0.203164      0.014183      0.338757
O       5.79819      3.90298      2.70513        -0.210161     -1.389822      0.353331
O       5.85205      3.88183     15.82947        -0.825556     -0.795610     -0.085099
O       5.81017      0.02228      2.57986        -0.200489      0.511905      0.430999
O       5.69927     15.27650     15.77323        -0.313837      2.298816      0.223570
O       5.81852      3.83440      7.14994        -0.085170     -0.290993     -0.325475
O       5.82833     15.27000      7.05271        -0.124661      1.099081      0.078193
O       5.87023      3.82182     11.52847        -0.553149     -0.364253     -0.337540
O       5.70274     15.33186     11.50672         0.191040     -0.551079      0.367879
O       5.80371      7.54705      2.79820        -0.385522      1.598226      0.203440
O       5.91295      7.64093     15.71221        -0.170632     -0.189883      0.314366
O       5.66965      7.72620      7.13221         0.083119     -0.414475     -0.157090
O       5.60214      7.72817     11.31444         0.037374     -0.571736      0.609931
O       5.75402     11.53396      2.55828        -0.003982      0.086050      0.288898
O       5.78100     11.49174     15.92380         0.202378     -1.076206      0.163015
O       5.78178     11.52475      7.10000        -0.316106      0.557556     -0.295813
O       5.76617     11.50306     11.36379         0.195959      0.509182      0.664668
O       9.66411      3.73384      2.71221         0.157236      2.504172      0.552524
O       9.63136      3.94357     15.68428         0.248305     -0.888283      0.109709
O       9.50556      0.03336      2.62333         0.390104     -0.451311      0.453568
O       9.69098     15.25257     15.60610         0.220322      0.760443      1.133833
O       9.65649      3.85907      6.95533        -0.533824     -0.802960      0.698139
O       9.73117     15.32811      7.11185        -0.511032     -0.363813     -0.352225
O       9.65053      3.75495     11.52968        -0.428734      1.141911      0.067581
O       9.46065      0.04748     11.38924         0.938313     -1.833312      0.218136
O       9.74412      7.74519      2.72095        -1.046199     -1.343002     -0.153994
O       9.60549      7.66058     15.86161         0.290024     -0.149165     -0.222383
O       9.60516      7.74108      6.88610        -0.044042     -0.066140      0.627685
O       9.50714      7.72632     11.37439         0.498450     -0.189080     -0.008534
O       9.63857     11.53335      2.57277         0.055389     -0.299650      0.656721
O       9.58658     11.49173     15.86857        -0.111926     -1.143964      0.086897
O       9.73325     11.46008      6.98627        -0.510252      1.084512     -0.023758
O       9.56957     11.54182     11.45020         0.472039     -0.636330     -0.081533
