  # total energy = -7865.67058781 
CRSYTAL
PRIMVEC
    15.010000000000000    0.0000000000000000    0.0000000000000000
     0.0000000000000000   15.010000000000000    0.0000000000000000
     0.0000000000000000    0.0000000000000000    16.400000000000000
PRESSURE
19.4378 19.3324 12.9472 0.377781 -0.093459 -0.05472
PRIMCOORD
320 1
Pb       3.90512      3.69612      4.22406        -0.630033      0.390819     -0.284526
Pb       3.79763      3.76200      0.06585        -0.557274      0.168926     -0.718384
Pb       3.71311      0.08634      4.10493        -0.120104     -0.843238      0.010652
Pb       3.79451      0.01113     16.35991        -0.809290     -0.250998      0.113624
Pb      14.93640      3.66366      4.07553         0.482297      0.147525      0.100776
Pb      15.00891      3.67742     16.34280         0.035601      0.508423      0.538676
Pb      14.95236      0.03103      4.16947         0.648634     -0.021634     -0.560661
Pb      14.92025     14.98067      0.02040         0.609056      0.602078     -0.273602
Pb       3.77873      3.66763      8.25284         0.121354      0.366003      0.190035
Pb       3.80543     14.94964      8.24265        -0.114549     -0.019840     -0.126390
Pb       0.00690      3.74040      8.24644         0.011428      0.040913     -0.320612
Pb      14.94882     14.91830      8.15489         0.440861      0.566933      0.326904
Pb       3.80107      3.71112     12.23810        -0.041063      0.433642      0.018059
Pb       3.74907      0.00589     12.39095        -0.316171     -0.307424     -0.375437
Pb      15.00441      3.69241     12.29511         0.074696      0.396951      0.162738
Pb       0.00389      0.00665     12.27679        -0.114990     -0.586883      0.220039
Pb       3.62241      7.55072      4.06607         0.330270     -0.412382      0.389123
Pb       3.76483      7.43522      0.12378        -0.329646      0.517057     -0.457824
Pb      14.94658      7.48728      4.08696         0.418021      0.359652      0.243375
Pb      14.97456      7.50212      0.04089         0.119412      0.086752     -0.170466
Pb       3.71033      7.56269      8.09052         0.129272     -0.655465      0.649825
Pb      14.99617      7.53023      8.18618         0.128708     -0.471452      0.154511
Pb       3.74983      7.54471     12.28621         0.173875     -0.120225     -0.253293
Pb       0.01862      7.38436     12.29742         0.077521      0.645110     -0.215311
Pb       3.64145     11.20628      4.13684        -0.016214      0.679002      0.129371
Pb       3.74138     11.08802     16.32247         0.013934      0.837245      0.599642
Pb      14.97487     11.20678      4.07748         0.304425      0.451838      0.526076
Pb      14.95509     11.34393      0.04546         0.337955     -0.897818     -0.479114
Pb       3.70000     11.12939      8.21239         0.235403      0.474376     -0.196499
Pb      14.98519     11.17636      8.14749        -0.044255      0.428179      0.353435
Pb       3.75771     11.27134     12.32535        -0.004861     -0.029110     -0.260879
Pb       0.00309     11.26471     12.30836        -0.096427      0.282332     -0.227027
Pb       7.49753      3.71666      4.10932        -0.135043      0.107077      0.534260
Pb       7.48968      3.81736     16.35646         0.794070     -0.633562      0.123142
Pb       7.47829     14.89725      4.16301        -0.151116      0.860963      0.163888
Pb       7.36808     14.99158     16.36764         0.969843      0.084776      0.353927
Pb       7.50071      3.67891      8.21372        -0.002609      0.272207     -0.129025
Pb       7.49299      0.00043      8.23967         0.182487     -0.211552     -0.403360
Pb       7.45585      3.71585     12.27203         0.111817      0.741065     -0.233490
Pb       7.54955     14.89518     12.35714        -0.338102      0.131053     -0.380745
Pb       7.34929      7.51157      4.00431         0.824048     -0.261549      0.943134
Pb       7.46140      7.44054      0.00762         0.505222      0.937006      0.147585
Pb       7.48152      7.49436      8.29633         0.260035     -0.336557     -0.446456
Pb       7.54532      7.45934     12.41263        -0.242536     -0.271371     -0.681798
Pb       7.48329     11.30444      4.05790        -0.311178     -0.455958      1.002904
Pb       7.51582     11.25468      0.02705        -0.301197      0.179123      0.013661
Pb       7.44566     11.21003      8.20067         0.596885      0.512451      0.569085
Pb       7.52963     11.19113     12.30594        -0.621411      0.363145      0.011019
Pb      11.19015      3.74446      4.10005         0.127303      0.220520      0.368719
Pb      11.30242      3.79965     16.36282        -0.509699     -0.506218      0.390436
Pb      11.37196     14.96201      4.16718        -0.683642      0.579667     -0.101612
Pb      11.15003     14.90492      0.03632        -0.171501      1.373832      0.650952
Pb      11.38927      3.73647      8.13493        -1.002829      0.587315      0.276762
Pb      11.31256     14.91132      8.20942        -0.709348      0.481303      0.289703
Pb      11.31263      3.70419     12.20643        -0.655149      0.691852      0.588832
Pb      11.28415      0.08297     12.27575        -0.046539     -0.593087     -0.090877
Pb      11.24207      7.46171      4.12774        -0.777380      0.360120      0.509291
Pb      11.16310      7.45312      0.05976         0.406498      0.348996      0.035079
Pb      11.14075      7.44889      8.17689         0.175035      0.291710     -0.177273
Pb      11.26743      7.37864     12.27557        -0.111385      0.187402      0.193234
Pb      11.28526     11.25927      4.11225        -0.146639     -0.013815      0.465143
Pb      11.22129     11.17898      0.00885        -0.006971      0.248661      0.477300
Pb      11.14635     11.21386      8.24465         0.246412     -0.090026     -0.363781
Pb      11.20111     11.28514     12.25279         0.401736      0.030179     -0.015059
Ti       1.94450      1.90637      2.18357        -1.036810     -0.502389     -0.600709
Ti       1.95328      1.90179     14.53650        -1.241985     -0.015852      0.474744
Ti       1.82374     13.12025      2.03734         0.580807      0.404610      2.048695
Ti       1.83476     13.15756     14.39898        -0.878522     -0.524063     -0.005464
Ti      13.06820      1.88236      2.11858         0.675214      0.345581      0.616679
Ti      13.13063      1.87284     14.39220        -0.447241     -0.530892      1.433297
Ti      13.15526     13.15975      2.11138        -0.374448     -0.760416     -0.248788
Ti      13.04207     13.13459     14.49084         0.921407     -0.126078     -1.552781
Ti       1.89572      1.89041      6.28481        -2.511098     -0.497137     -0.496499
Ti       1.89500     13.15642      6.20917         0.244114     -1.285912      1.024784
Ti      13.09650      1.93367      6.22284         0.844019      0.285822      0.431707
Ti      13.14979     13.15125      6.25761        -0.083205     -1.913463      0.219353
Ti       1.82949      1.87743     10.33292         0.266617     -0.260805     -0.772055
Ti       1.84276     13.11189     10.24786        -0.706882      0.577204      1.794377
Ti      13.06298      1.91331     10.32651        -0.449707     -0.371349     -0.533960
Ti      13.07240     13.11153     10.27189         0.297666     -0.182494      0.544910
Ti       1.88791      5.61622      2.10411        -0.705764     -0.525016     -0.357866
Ti       1.87015      5.68652     14.37181         0.680054     -0.548659      2.003778
Ti      13.15312      5.65471      2.24655        -0.365442     -1.190709     -1.238615
Ti      13.12731      5.70322     14.50293         0.310051     -1.657633     -0.438253
Ti       1.90091      5.58859      6.15867        -0.926151     -0.379574      1.204949
Ti      13.14789      5.70063      6.21920        -0.631450     -0.603729      1.092517
Ti       1.93627      5.62996     10.30140        -0.597723     -0.359448      1.053700
Ti      13.15970      5.67200     10.30737        -0.869312     -1.868048     -0.648931
Ti       1.78781      9.36458      2.09720        -0.149535      1.015477     -0.524403
Ti       1.92728      9.38273     14.37998        -0.649028      0.958084     -0.070700
Ti      13.02841      9.37610      2.22475         0.879159      0.877651     -0.009708
Ti      13.13395      9.39047     14.40529        -0.216360     -0.359854      0.602536
Ti       1.89243      9.34968      6.20070        -0.271043      0.533793      0.262217
Ti      13.13253      9.35832      6.32003        -1.527932      1.487662      0.218659
Ti       1.89063      9.36702     10.26856         0.008133      0.090226      0.980185
Ti      13.11831      9.33845     10.32246         0.239469      0.591129      0.635036
Ti       5.60417      1.86234      1.97300         1.780025     -0.634376      2.452596
Ti       5.68008      1.94311     14.29073        -1.377250     -0.080788      0.683074
Ti       5.53176     13.10756      2.17240        -1.143991     -0.576947     -0.370578
Ti       5.59328     13.17460     14.49629        -0.268643     -1.399226     -1.469534
Ti       5.63708      1.82262      6.19904        -0.170751      1.012517      2.522434
Ti       5.62076     13.03813      6.25910         0.114372      0.710977      0.068869
Ti       5.64360      1.77437     10.38442        -1.111116      0.766691     -0.589213
Ti       5.56834     13.08606     10.38732         0.318970     -1.519653     -0.297851
Ti       5.65635      5.61655      2.07940        -0.956626     -0.356163      1.438944
Ti       5.66085      5.72217     14.52366        -0.700808     -0.948744     -0.450465
Ti       5.57709      5.62522      6.23256         0.453402     -0.602496      0.527977
Ti       5.63573      5.69157     10.19449        -0.670578     -1.688885      1.066046
Ti       5.53309      9.38289      2.23350        -0.040089     -0.007987     -1.171262
Ti       5.68417      9.42730     14.34967        -0.402682      0.536746      1.637287
Ti       5.69973      9.33765      6.22593        -0.403076      0.222765      0.085541
Ti       5.67102      9.29604     10.25478        -0.469932      1.047309      1.633088
Ti       9.34012      1.89175      2.22542         0.180389      0.148915     -1.223059
Ti       9.38794      1.91107     14.34946        -0.805757      0.510585      1.511645
Ti       9.32241     13.19939      2.21213         0.469445     -0.494084      0.158344
Ti       9.33305     13.22252     14.42716         0.131215     -1.404665      1.615704
Ti       9.38794      1.91232      6.24012        -0.755378      0.081968     -0.148230
Ti       9.41776     13.16525      6.16900        -0.531794     -0.035566      0.995265
Ti       9.32369      1.87890     10.29691         0.353823      0.142395     -0.722629
Ti       9.30097     13.11300     10.30037         0.134175     -0.230991      0.653076
Ti       9.37138      5.66553      2.19025         0.044692     -0.341367      1.410671
Ti       9.38382      5.64477     14.37049         0.309512     -0.809607      0.144327
Ti       9.27419      5.69553      6.18269         0.534454     -1.175421      0.636051
Ti       9.39085      5.61592     10.21348        -1.022572     -0.605420      1.879712
Ti       9.27115      9.43527      2.18449         1.051245     -0.541757      1.189646
Ti       9.39428      9.42021     14.43576         0.168987     -0.091295      0.553727
Ti       9.29272      9.37671      6.25062         1.772161      0.435191     -0.720409
Ti       9.39334      9.31984     10.43392        -0.822713      0.352280      0.350761
O       2.01102      1.85121      0.36509        -0.020717      0.323530     -0.144148
O       1.90366      1.91086     12.77393        -0.351244     -0.085098     -1.444000
O       1.67462     13.09765      0.31013         0.183213      0.158753     -1.365933
O       1.73337     13.13010     12.59556         0.529849     -0.001397     -0.260997
O      13.05028      1.74319      0.36927        -0.048894      0.406153     -1.089351
O      13.04584      1.78419     12.64376        -0.064120      0.483266     -1.620295
O      13.41132     13.13672      0.24251        -1.206680      0.239931      0.998898
O      12.91167     12.96477     12.62586         0.283531      0.691320      0.468172
O       1.78469      1.93616      4.44529         0.455357     -0.267376     -0.266511
O       1.75623     13.11644      4.48047         0.394902      0.246188     -0.884906
O      13.10368      2.02182      4.43507         0.203588     -0.709948     -0.007907
O      13.06316     13.08556      4.45987         0.012046      0.381727     -0.419359
O       1.86481      1.92065      8.51562        -0.312220     -0.460604      0.503456
O       1.89047     13.18680      8.52202         0.023268     -0.078796     -1.383067
O      12.97340      1.89795      8.52795         0.494096      0.022181     -0.329341
O      13.12500     13.07661      8.47079         0.017286      0.468925      0.236928
O       1.74259      5.76921      0.31245         0.322781     -0.039913      0.067456
O       1.88119      5.59656     12.63497        -0.173061      0.058565     -0.938826
O      13.12398      5.63522      0.40490         0.072120      0.265334      0.205336
O      13.12032      5.57245     12.69388        -0.019862      0.516114     -0.180244
O       2.06143      5.53676      4.42434        -0.399841      0.138952     -1.491473
O      13.13143      5.62532      4.44704        -0.032377      0.351657     -0.705570
O       1.89041      5.62389      8.56643        -0.305310      0.057178     -1.181576
O      13.15703      5.53077      8.50673        -0.148216      0.845499      0.196833
O       2.00048      9.36079      0.28106        -0.684472     -0.261487      0.444879
O       1.88304      9.47655     12.54314        -0.058048     -0.308375      0.540247
O      12.97817      9.35658      0.48296         0.263501     -0.138735     -1.132077
O      13.12135      9.29763     12.64625        -0.146512      0.201961     -0.988528
O       1.74544      9.38825      4.43772         0.111924     -0.291421     -0.710138
O      13.11672      9.34933      4.56225         0.140804      0.002826     -1.367984
O       2.00994      9.32196      8.47351        -0.701235     -0.064158     -0.375692
O      12.98598      9.31162      8.56665         0.288558      0.103916     -0.687437
O       5.54521      1.78758      0.25388         0.164922      0.145144     -1.651431
O       5.49850      1.86316     12.50711         0.293254     -0.220233     -0.019661
O       5.60621     13.11909      0.35600        -0.060306      0.277942     -0.218471
O       5.52960     13.09471     12.62565         0.163521      0.184175      1.051620
O       5.67604      1.99236      4.48568        -0.375910     -0.319300     -1.758021
O       5.63179     13.00572      4.49692        -0.525937      0.428192     -0.741685
O       5.60883      1.81525      8.56653        -0.244361     -0.414966      0.063346
O       5.65879     13.23062      8.57110        -0.143700     -0.367980     -0.175097
O       5.79870      5.77598      0.33178        -0.455386     -0.471582     -1.470099
O       5.77003      5.65285     12.79014        -0.436210      0.199250     -1.788237
O       5.58548      5.58498      4.42338        -0.499501     -0.195230     -0.428564
O       5.40540      5.71215      8.46150         0.830323     -0.149090     -0.404169
O       5.47125      9.41050      0.40089         0.536608     -0.171631      0.674230
O       5.51734      9.42425     12.62521         0.308918     -0.358791     -1.122803
O       5.63160      9.30888      4.44702         0.102709      0.123448     -0.247733
O       5.59335      9.29112      8.50895         0.289269      0.136809     -1.298357
O       9.37774      2.04632      0.37441        -0.339218     -0.575191      1.096020
O       9.35817      1.92067     12.59544        -0.146039     -0.340957     -1.025597
O       9.28974     13.25412      0.46536        -0.520873     -0.222260     -1.001883
O       9.28899     13.11777     12.69308         0.682108      0.147325     -1.229175
O       9.30190      1.88583      4.41480         0.071172     -0.074513      0.557036
O       9.59880     13.23602      4.38223        -0.622022     -0.256109     -0.054470
O       9.36034      1.88980      8.46913        -0.050219     -0.129203      1.019928
O       9.29559     13.12545      8.55725        -0.155956      0.014145     -1.445013
O       9.34590      5.60392      0.45121        -0.181165     -0.043859     -1.963197
O       9.28435      5.59472     12.60336         0.095851      0.186869     -0.289641
O       9.30614      5.73647      4.42329        -0.070359     -0.100743     -0.728333
O       9.27991      5.68911      8.49757         0.306696      0.027823     -1.676349
O       9.41114      9.48917      0.44427        -0.151914     -0.435034     -1.271021
O       9.34037      9.37844     12.65808         0.250444     -0.036195     -0.127245
O       9.18762      9.31662      4.51085         0.366970      0.164354     -1.403273
O       9.28682      9.38282      8.68735         0.156975     -0.157148     -1.803910
O       3.87797      1.95842      2.51242        -2.213503      0.019290      0.231668
O       3.76403      1.83093     14.69510         0.661353     -0.062592      0.288590
O       3.64651     12.94252      2.48968         0.538964      0.579481     -0.059499
O       3.67429     13.15403     14.69617         1.239306      0.357319      0.081954
O      14.96630      1.90850      2.37614         0.663815     -0.192704      0.257469
O      14.98043      1.92748     14.74773         0.577922     -0.031434     -0.059202
O       0.01907     13.23492      2.50162        -0.948985      0.077041     -0.022275
O      14.93906     13.14910     14.53296        -0.066910     -0.544531      0.439099
O       3.62244      2.04553      6.50647         3.295733     -0.253264     -0.130595
O       3.78882     12.97053      6.54798        -1.208906      0.235185      0.184842
O      14.92472      1.86051      6.58252         0.505828     -0.547697      0.087060
O       0.04448     13.13369      6.61863        -1.110376      0.261778     -0.195365
O       3.69741      1.90830     10.58829         0.295046     -0.705869      0.195429
O       3.64784     13.15023     10.67880         0.981703     -0.131643     -0.180277
O      14.84397      1.90027     10.71396         2.244063      0.071880     -0.185562
O      14.93304     13.14972     10.59397        -0.100137      0.173988      0.177300
O       3.70242      5.73581      2.16117         1.573670     -0.505996      0.542587
O       3.82862      5.66362     14.87459        -1.527829      0.304072     -0.198710
O       0.02512      5.53671      2.46615        -1.121259      0.825550      0.359947
O      15.00791      5.60711     14.79359        -0.138761      0.460410     -0.500656
O       3.69010      5.51287      6.57735         0.793796     -0.249154     -0.324890
O      14.99896      5.76394      6.48653         0.399190      0.229153     -0.012040
O       3.74312      5.66025     10.67046         0.762367     -0.314907      0.311022
O      14.95735      5.58843     10.67323         1.138282      0.059803      0.010877
O       3.61988      9.45787      2.57395         0.724266     -0.659890     -0.421542
O       3.81740      9.38525     14.70468        -1.189122     -0.051680     -0.326310
O      14.94236      9.38858      2.44222         0.104422     -0.564253     -0.020333
O      14.94055      9.36966     14.69769         1.308028     -0.077954      0.269443
O       3.82700      9.41737      6.42671        -1.257904      0.268975      0.224008
O      14.95855      9.29249      6.60367         1.350755     -0.355293      0.126995
O       3.76413      9.35145     10.53628        -0.649755      0.025120      0.418796
O      15.00930      9.26528     10.47077        -0.333338     -0.114816      0.357794
O       7.45603      1.70679      2.49314        -0.234980      0.149799     -0.488126
O       7.44280      1.95441     14.59637         1.322065     -0.151726      0.441074
O       7.32855     13.22172      2.49272         2.337334     -0.244165      0.084840
O       7.50378     13.03861     14.77231        -0.738730      0.452459      0.084786
O       7.42357      1.79020      6.62823         1.255256     -0.220062     -0.390946
O       7.51162     13.25333      6.41983         0.225177      0.262999      0.346130
O       7.44577      1.86318     10.71460         1.071089     -0.698334     -0.240434
O       7.47766     13.12231     10.79468        -1.031982      0.299126     -0.359029
O       7.44032      5.64721      2.44545         0.940441      0.333009      0.011384
O       7.53739      5.56502     14.74310        -0.018182      0.225039      0.587335
O       7.44546      5.63630      6.55729        -0.542787      0.539807      0.158110
O       7.43580      5.72094     10.45695         0.903054      0.036656      0.535620
O       7.44597      9.39900      2.50047        -0.440516     -0.415237     -0.572192
O       7.50535      9.59378     14.77806         0.190728     -0.826984     -0.077867
O       7.54116      9.41626      6.65657        -2.269576     -0.505221      0.392393
O       7.48727      9.32328     10.75909        -0.241942     -0.745058     -0.219987
O      11.25305      1.91244      2.48246        -1.117406     -0.096911      0.168804
O      11.12378      1.74180     14.65263         2.557347      0.076751      0.328070
O      11.26022     13.01064      2.16586         0.315613      0.404421      0.698099
O      11.17422     13.25992     14.91842         0.640702     -0.771241     -0.712005
O      11.25333      2.04047      6.47127        -0.004120     -0.261388     -0.038969
O      11.24876     13.10052      6.64939         0.180674     -0.146920     -0.387894
O      11.18564      1.88195     10.66667        -0.311836      0.293965      0.061440
O      11.18397     13.02971     10.48477         0.024295     -0.214901      0.552103
O      11.23095      5.59064      2.45729         0.221504      0.250176      0.155188
O      11.26442      5.64801     14.77747        -1.071563      0.090710      0.001233
O      11.16255      5.58468      6.44913         1.170476      0.208149      0.311690
O      11.17607      5.51816     10.60353         1.817408      0.281739      0.190270
O      11.23135      9.49219      2.59130        -1.273942     -0.115051     -0.070453
O      11.26136      9.39821     14.82386        -1.079624     -0.590757     -0.323310
O      11.14545      9.44173      6.51529         1.148781      0.045175      0.463985
O      11.20503      9.41450     10.63290         1.007268      0.054726      0.472466
O       1.85000      3.73529      2.35020         0.499079      0.693724      0.136204
O       1.89084      3.86220     14.84863         0.343555     -1.318246     -0.137011
O       1.91725      0.04540      2.40494         0.337170     -0.781576      0.366522
O       1.84011     14.98576     14.80323        -0.051965      0.934247     -0.192261
O      13.03659      3.77564      2.49033         0.393797     -0.179360     -0.326280
O      13.05906      3.68460     14.73311        -0.108950      1.185723      0.248763
O      13.12602     14.99570      2.51020        -0.275252      0.076581     -0.024105
O      13.20277      0.00736     14.60460        -0.570122     -0.634821      0.521196
O       1.71446      3.71693      6.60192        -0.090554      1.224876     -0.261619
O       1.93443     14.95894      6.50840        -0.021188      1.388841      0.206209
O      13.22551      3.84454      6.59756        -0.206991     -0.862234     -0.411677
O      13.08104     14.97429      6.45247        -0.112492      1.535610      0.184220
O       1.93555      3.72749     10.65678        -0.912124      0.442507      0.219608
O       1.75224      0.05294     10.62171         0.167783     -0.642692      0.175248
O      13.06770      3.79163     10.66477         0.062737     -0.778825      0.067071
O      12.96484      0.02244     10.51058         0.218758     -0.896269      0.447808
O       1.79027      7.52567      2.41917         0.006947     -0.369043      0.339208
O       1.86805      7.58165     14.60157        -0.106060     -1.307838      0.205379
O      13.03241      7.53747      2.56023         0.454207     -0.969227     -0.222009
O      13.00270      7.47186     14.83049         0.632478      1.298294     -0.084496
O       1.99588      7.49519      6.39935        -0.360530     -0.448087      0.271663
O      13.03578      7.55840      6.66410        -0.154057     -1.701243     -0.184559
O       1.87242      7.45710     10.65572        -0.182266      0.922138      0.191623
O      13.02594      7.43327     10.64479        -0.078912      1.238353      0.276755
O       1.72860     11.27034      2.45655        -0.102387     -0.612950     -0.327279
O       1.87186     11.27627     14.75202        -0.279843     -0.636832     -0.265371
O      13.23870     11.30887      2.51482        -0.436543     -0.256209     -0.408524
O      13.03704     11.22908     14.79649         0.086228      0.574906     -0.156276
O       1.74191     11.16279      6.53853         0.590278      1.168202      0.223042
O      13.19538     11.26493      6.57665        -0.344482     -0.320400      0.052194
O       1.77792     11.26302     10.50308         0.116520     -0.614341      0.124601
O      13.11608     11.19929     10.54379         0.020481      0.370722      0.385092
O       5.70371      3.71794      2.22561        -0.248945      0.575599      0.264040
O       5.56908      3.73666     14.66902        -0.039179      0.663237      0.590517
O       5.38348     14.93752      2.46368         0.424470      0.806315     -0.139325
O       5.69366      0.03137     14.64764        -0.291518     -0.185174      0.154749
O       5.73719      3.74435      6.64437        -1.059209     -0.017351     -0.512272
O       5.47098      0.02017      6.43533        -0.306043     -1.085021      0.229277
O       5.64998      3.70523     10.58804        -0.317441      0.904648      0.042811
O       5.58507     14.86620     10.67194        -0.053007      2.530868      0.238473
O       5.57482      7.47351      2.44225        -0.279623      0.694346     -0.018725
O       5.69021      7.58453     14.72685         0.503324     -0.078424      0.186019
O       5.53956      7.48417      6.50016         0.395580      0.188579     -0.043806
O       5.57554      7.49549     10.60485        -0.072913     -0.287375      0.638129
O       5.56741     11.15249      2.63537         0.244391      1.796878     -0.614460
O       5.55315     11.31795     14.78464         0.084637     -0.555379     -0.185964
O       5.66395     11.20083      6.69518         0.217638      0.273517     -0.442496
O       5.61042     11.15377     10.63436        -0.037284      1.264752     -0.213057
O       9.25804      3.80888      2.66480         0.394655     -1.029967     -1.124152
O       9.41183      3.80092     14.75427        -0.104178     -0.699817     -0.109013
O       9.44440      0.00715      2.55590        -0.081732      0.265406     -0.304346
O       9.26682      0.01394     14.84340        -0.467754      0.589757     -0.411174
O       9.22520      3.75295      6.54064         0.075000      0.385893     -0.242652
O       9.50269      0.07998      6.53501        -0.192169     -1.338768     -0.000865
O       9.27131      3.77524     10.55008        -0.219234     -1.154593      0.301487
O       9.36615     14.97945     10.54775        -0.222985      0.865824      0.569863
O       9.43245      7.52990      2.42716        -0.284146      0.475042     -0.051334
O       9.21599      7.51091     14.67099         0.454607      0.456744      0.434853
O       9.34443      7.51993      6.54421        -0.093629     -0.045063      0.555405
O       9.48972      7.42739     10.64736        -0.626527      1.088420      0.338877
O       9.23391     11.29174      2.55636         0.439900      0.406295     -0.295563
O       9.40653     11.26195     14.86526         0.286697      0.867658     -0.464350
O       9.28648     11.32200      6.45332         0.067242     -0.068744      0.407077
O       9.11337     11.24322     10.63548         1.371671     -0.225359      0.083381
