  # total energy = -7879.20687227 
CRSYTAL
PRIMVEC
    15.3600000000000000    0.0000000000000000    0.0000000000000000
     0.0000000000000000   15.3600000000000000    0.0000000000000000
     0.0000000000000000    0.0000000000000000    17.440000000000000
PRESSURE
0.489028 0.715014 -4.50161 -0.443165 -0.145201 0.054471
PRIMCOORD
320 1
Pb       3.80798      3.83630      4.36489         0.156576      0.074111     -0.252036
Pb       3.91606      3.81792     17.36045        -0.768656      0.008241      0.861536
Pb       3.82656     15.34984      4.32026        -0.284805     -0.559601      0.633973
Pb       3.87346      0.01611     17.40149        -0.209988     -0.288372      0.384990
Pb      15.31956      3.82484      4.36623         0.183604      0.096635      0.063055
Pb       0.03694      3.82511      0.00988         0.141263      0.333686     -0.032753
Pb       0.00113     15.32625      4.32540         0.165199     -0.165299     -0.117419
Pb      15.21705     15.32999     17.41270         0.963666      0.004088      0.487193
Pb       3.80322      3.88233      8.61187        -0.157191     -0.065751      0.406624
Pb       3.82379     15.32903      8.76177        -0.253019      0.136911     -0.095996
Pb      15.18911      3.84922      8.63087         0.774653      0.238229      0.745393
Pb      15.30537      0.08610      8.66731         0.355389     -0.867214      0.798771
Pb       3.86314      3.78868     12.98741        -0.443821      0.297054      0.601643
Pb       3.80409     15.27534     13.01390        -0.318503      0.349695     -0.032727
Pb      15.32079      3.75403     13.07078         0.223413      0.327466      0.327660
Pb      15.34759      0.02224     12.96310         0.084463     -0.567643      0.848909
Pb       3.86882      7.69286      4.28708         0.140214     -0.245738      0.526892
Pb       3.77195      7.66736      0.01190         0.225586     -0.095094     -0.194181
Pb       0.08661      7.66680      4.30542        -0.395457      0.177467      0.524259
Pb      15.34649      7.75143     17.35844        -0.099107     -0.766569      0.477978
Pb       3.90663      7.62224      8.68478        -0.900465      0.567219      0.663974
Pb      15.33363      7.63683      8.67638         0.250193      0.285211      0.378498
Pb       3.83136      7.65835     13.06054        -0.216751      0.091369      0.388713
Pb       0.02269      7.68161     13.05812         0.023698      0.020095      0.465285
Pb       3.74133     11.47892      4.30916         0.221580      0.125745      0.544206
Pb       3.92108     11.39895     17.35554        -0.419610      0.225799      0.417551
Pb       0.07109     11.58204      4.23116        -0.147473     -0.422227      0.932797
Pb      15.31889     11.47309     17.37295        -0.024168      0.197227     -0.172421
Pb       3.79912     11.56440      8.70363         0.083508     -0.478009      0.087927
Pb      15.35538     11.42838      8.66349        -0.162047      0.316741      0.559361
Pb       3.90546     11.51714     13.02044        -0.361955     -0.460337     -0.101451
Pb       0.04049     11.48790     13.09437        -0.212813     -0.080344     -0.145394
Pb       7.67041      3.75849      4.36570         0.060667      0.634502     -0.139544
Pb       7.72239      3.88031     17.30219        -1.191494     -0.279967      1.240512
Pb       7.66544      0.03861      4.30726        -0.242173     -0.526968      0.406312
Pb       7.53540     15.34672     17.35628         0.194992     -0.141557      0.397209
Pb       7.66234      3.81826      8.67991        -0.092410     -0.060490      0.438604
Pb       7.68616     15.29594      8.65271        -0.261219      0.300117     -0.013325
Pb       7.75049      3.89134     13.15165        -0.671992     -0.091511     -0.148373
Pb       7.70101      0.05648     13.03225        -0.303048     -0.458700      0.162271
Pb       7.59826      7.61332      4.28758         0.027310     -0.422095      0.440851
Pb       7.66987      7.64455     17.41606        -0.826515      0.002476      0.256971
Pb       7.62401      7.75924      8.63861         0.171678     -0.341852      0.721893
Pb       7.64791      7.63478     13.01467        -0.438953      0.276101      0.693320
Pb       7.65153     11.45764      4.32512         0.231730     -0.048244      0.533627
Pb       7.62572     11.58235     17.33631        -0.300288     -0.595496      0.743233
Pb       7.71194     11.48314      8.68881        -0.443693      0.129872      0.085376
Pb       7.78327     11.59556     13.06948        -0.724266     -0.959897     -0.111219
Pb      11.55905      3.77019      4.34108        -0.565195      0.748517      0.451426
Pb      11.50482      3.82814     17.43191         0.451995     -0.134079      0.210267
Pb      11.52686      0.02451      4.25654         0.261035     -0.622783      1.127509
Pb      11.47817     15.33397     17.28475        -0.278010     -0.307387      0.653296
Pb      11.55485      3.94517      8.66909        -0.601195     -0.667519      0.242996
Pb      11.50396     15.30071      8.65454        -0.210961      0.176090      0.381256
Pb      11.51823      3.76644     13.13420        -0.045053      0.168985      0.278375
Pb      11.44085     15.33632     13.01976         0.659709      0.121336      0.521766
Pb      11.55323      7.68538      4.25931        -0.362882     -0.424417      0.890163
Pb      11.45318      7.62148     17.42822         0.357921     -0.060255     -0.060605
Pb      11.53848      7.66060      8.66550        -0.339666      0.189214      0.026312
Pb      11.45376      7.69252     13.00411         0.482925     -0.222066      0.652656
Pb      11.54154     11.44323      4.36115        -0.139053     -0.147837      0.205758
Pb      11.44311     11.49192     17.38408         0.276822      0.110574     -0.227726
Pb      11.49182     11.50333      8.76225         0.219228      0.155639      0.022742
Pb      11.49566     11.50038     12.97851        -0.115675     -0.751658      0.771741
Ti       1.98020      1.94036      2.34353        -0.122195     -0.647770     -1.331561
Ti       1.98692      1.89670     15.39451        -0.147329      0.007027     -1.325604
Ti       1.90773     13.47025      2.19548         0.250006      0.014045     -0.590202
Ti       1.86378     13.50488     15.41771         0.353755     -0.329416      0.712780
Ti      13.53734      1.89909      2.40447        -0.298694      0.394646     -0.820750
Ti      13.50290      1.94481     15.42615         0.009925     -0.319439     -0.483037
Ti      13.36453     13.36274      2.35174         0.700359      0.088263     -1.078679
Ti      13.41174     13.46891     15.32852         0.055861     -0.871754     -0.376496
Ti       1.91725      1.92241      6.69144         0.168330     -0.123017      0.374906
Ti       1.84768     13.40085      6.73453         0.271099      0.038810     -0.307716
Ti      13.47767      1.90450      6.69524        -1.292220     -0.272093     -0.442222
Ti      13.37196     13.43308      6.68972        -0.157492     -0.387044     -0.112743
Ti       1.85685      1.92342     11.00484         1.169706     -0.110271     -1.377820
Ti       1.86755     13.42722     11.03004        -0.220711     -0.729731     -1.317605
Ti      13.40002      1.84473     11.09569        -0.316501      0.209355     -0.575521
Ti      13.38650     13.34106     11.12600         0.402497      0.418360     -1.845144
Ti       1.83941      5.74886      2.38174         0.604676     -0.581112     -1.860152
Ti       1.83091      5.70930     15.34056         0.597195      0.059591     -0.012501
Ti      13.39307      5.78098      2.34232         0.456114     -0.478622     -1.241846
Ti      13.38959      5.74162     15.39771         0.597197     -0.165700     -0.942620
Ti       1.79807      5.78078      6.59033         0.512412     -0.062201      0.204361
Ti      13.39387      5.82653      6.63527        -0.623521     -0.027859     -0.919986
Ti       1.87501      5.71064     11.03559         0.171492      0.970090     -1.154035
Ti      13.46648      5.64109     11.16142        -0.528271      0.296320      0.146246
Ti       1.93378      9.57647      2.32571         0.215351      0.093428     -0.956256
Ti       1.85326      9.57938     15.41087         0.452784     -0.067746     -1.013579
Ti      13.50020      9.54991      2.31634        -1.289487     -0.012384     -0.262183
Ti      13.27680      9.54453     15.43555         0.979337      0.317719     -1.868383
Ti       1.87494      9.55971      6.66067         1.106322      0.080376     -0.866377
Ti      13.37205      9.67483      6.63853        -0.000557     -0.514848     -1.217187
Ti       1.86314      9.58505     11.01604         0.339818      0.056247     -0.975140
Ti      13.39960      9.46824     11.06698        -0.090494      0.930661     -0.369425
Ti       5.73664      1.84526      2.36456         0.186265     -0.518751     -1.402961
Ti       5.72826      1.85957     15.27067        -0.019020      0.407201      2.027089
Ti       5.73790     13.32721      2.41162        -0.906451      0.297987     -1.374071
Ti       5.67588     13.38044     15.26898         0.086273     -0.181596     -0.647053
Ti       5.70612      1.91375      6.68245         0.030406      0.137617     -0.842820
Ti       5.61926     13.45936      6.59828        -0.181611     -0.214735     -0.200401
Ti       5.71237      1.89914     11.05779         0.077274     -0.089124     -0.505851
Ti       5.70280     13.40359     10.99278        -0.122321     -0.035846     -0.055116
Ti       5.71396      5.63342      2.25772         0.485731      0.905106     -1.100323
Ti       5.62811      5.72422     15.44926         0.227156      0.571203     -1.433570
Ti       5.72128      5.83291      6.75410         0.148717     -0.542854     -1.277113
Ti       5.72360      5.70098     11.05590        -0.258464      0.304744     -0.593214
Ti       5.79170      9.52584      2.36237        -1.393475      0.040881     -1.863506
Ti       5.71883      9.54693     15.35757         0.055278     -0.919210     -1.306088
Ti       5.73645      9.61625      6.59543        -0.903852     -0.079297     -0.670291
Ti       5.72248      9.51197     11.02901        -0.200154      0.501191      0.289207
Ti       9.64249      1.88265      2.43066        -0.413288      0.483297     -1.407769
Ti       9.58287      1.93943     15.45441        -0.037373     -0.867290     -1.116786
Ti       9.58878     13.34928      2.35463        -0.304495      0.038481     -0.502505
Ti       9.51970     13.40451     15.36688        -0.055118     -0.213182     -0.239871
Ti       9.53278      1.91104      6.65249         0.876659      0.182665      0.190033
Ti       9.48369     13.36164      6.68601         0.705760      0.204360     -0.853944
Ti       9.56245      1.92365     11.09224         0.309812      0.295973     -1.618518
Ti       9.53004     13.42316     11.06374         0.594285     -0.131358     -0.467443
Ti       9.49977      5.76580      2.23179         0.238926     -0.247274      0.618975
Ti       9.53489      5.75824     15.41172        -0.183181     -0.520252     -0.264458
Ti       9.49499      5.70807      6.66333         1.477411      0.421556     -1.644999
Ti       9.61747      5.71571     11.07024        -0.107574     -0.994144     -0.121939
Ti       9.55927      9.55690      2.31301         0.290815     -0.272215     -0.344738
Ti       9.51986      9.53794     15.37363        -0.489775      0.514364     -0.672211
Ti       9.57394      9.56345      6.67776         0.975602      0.213649     -0.340896
Ti       9.54625      9.51349     10.93302        -0.117038      0.288687      0.417487
O       2.07746      1.81883      0.52248        -0.437054      0.529357      1.943738
O       2.10759      1.79865     13.55097        -0.893612      0.326990      1.844067
O       1.80341     13.47278      0.36608         0.238574     -0.170082      2.056416
O       1.80743     13.55272     13.65741         0.208765     -0.363898      0.389603
O      13.56871      2.02638      0.60937        -0.465412     -0.596927      1.034098
O      13.49853      1.86132     13.62445        -0.149657      0.074063      1.459756
O      13.35541     13.35577      0.52307        -0.046487      0.099554      1.769321
O      13.55624     13.51320     13.53076        -0.546405     -0.220158      1.475707
O       1.88810      1.97082      4.90045         0.101358     -0.131770      1.186166
O       1.91900     13.30114      4.92299        -0.222976      0.389522      1.688556
O      13.53768      1.81525      4.90295        -0.141184      0.125733      0.970603
O      13.37923     13.41032      4.85920         0.251786      0.131276      1.756900
O       2.03452      1.91743      9.13732        -0.822713      0.086958      2.298310
O       1.93674     13.43645      9.19515        -0.135976     -0.253202      1.452292
O      13.49748      1.98947      9.30768        -0.366467     -0.271903      0.694950
O      13.24117     13.43997      9.27178         0.343704     -0.226231      1.903838
O       1.82519      5.61539      0.54391        -0.036109      0.415204      1.888168
O       1.91982      5.82534     13.53134        -0.377617     -0.400736      1.661082
O      13.46100      5.72935      0.47437        -0.283751      0.067305      2.170294
O      13.54266      5.64775     13.56290        -0.424567     -0.025002      1.601544
O       1.75599      5.71124      4.75717         0.543193      0.050056      2.168623
O      13.53673      5.78151      4.85207        -0.479083     -0.018357      1.196604
O       1.80560      5.89360      9.18032         0.061736     -0.516136      1.981300
O      13.38338      5.68434      9.35782         0.112589     -0.031737      0.943869
O       1.81357      9.55636      0.45806         0.110308     -0.163008      2.007123
O       1.89174      9.55394     13.55423        -0.383159      0.155397      2.355395
O      13.26420      9.46090      0.47559         0.595040      0.270762      1.695891
O      13.31129      9.52934     13.59484        -0.075870      0.044101      1.553756
O       2.07902      9.55085      4.76857        -1.080846      0.237954      2.501426
O      13.43599      9.62606      4.79037        -0.276227      0.004246      2.158732
O       1.83940      9.59576      9.12621        -0.066520     -0.152276      2.067189
O      13.24955      9.57548      9.25471         0.556219     -0.211555      1.708069
O       5.66371      1.58305      0.51182         0.420841      0.947919      2.207817
O       5.66246      1.89290     13.53642         0.137347     -0.192343      0.259263
O       5.66869     13.31543      0.56233         0.466551      0.021997      1.763843
O       5.68918     13.39565     13.42902         0.182583      0.033650      1.899957
O       5.63389      1.82346      4.83929         0.554328      0.387393      1.595811
O       5.40543     13.53549      4.78887         1.319761     -0.517811      1.852568
O       5.74922      1.99570      9.28064        -0.259122     -0.110336      0.776995
O       5.68120     13.40395      9.18818         0.231395      0.112210      1.234100
O       5.85412      5.77060      0.42277        -0.764627     -0.310845      2.020760
O       5.70020      5.73119     13.58900        -0.245140     -0.157786      1.834247
O       5.83035      5.91471      4.92658        -0.236146     -0.425184      1.747583
O       5.71064      5.78414      9.16170        -0.013912     -0.146187      2.142323
O       5.61370      9.56241      0.46768         0.499804      0.044808      2.163197
O       5.78489      9.51174     13.48696        -0.356398      0.409472      2.156265
O       5.86613      9.33679      4.76480        -0.653226      0.783147      1.993544
O       5.68681      9.46259      9.22507         0.293432      0.445627      1.688097
O       9.61502      1.74999      0.62865         0.073311      0.103446      1.267375
O       9.62966      2.05497     13.64938        -0.427252     -0.696976      1.505169
O       9.50373     13.40151      0.53525         0.341392     -0.096010      1.554775
O       9.38493     13.30042     13.57012         0.589882      0.368836      0.904142
O       9.58547      2.18552      4.83915        -0.242034     -1.039506      1.266098
O       9.59391     13.19051      4.90093        -0.146607      0.292069      1.300999
O       9.65357      1.92350      9.25301        -0.593272     -0.090160      1.904138
O       9.51333     13.49644      9.26556        -0.155542     -0.079782      1.151929
O       9.45466      5.93108      0.40211         0.431502     -0.907428      1.657957
O       9.33389      5.61932     13.61787         0.928180      0.373443      1.362011
O       9.67306      5.65483      4.82109        -0.699667     -0.127297      2.086141
O       9.59830      5.66199      9.31164         0.070427      0.025197      0.406762
O       9.44446      9.51905      0.52372         0.622608     -0.074114      1.111925
O       9.49119      9.63369     13.57681         0.251164     -0.385389      1.489599
O       9.70885      9.79835      4.88164        -0.748840     -0.651191      1.490862
O       9.55953      9.62066      9.13618        -0.179314     -0.475141      1.280021
O       3.89705      1.78178      2.86754        -0.660129      0.947051     -0.905076
O       3.88495      1.93835     15.89162         0.388857     -0.492396     -0.902809
O       3.75162     13.46959      2.76238         0.521113     -0.010584     -0.846744
O       3.84317     13.27050     15.78653        -0.443648      0.574760     -0.714787
O       0.04568      1.88024      2.79777        -0.037579      0.046628     -0.307549
O       0.05346      1.75856     15.78631        -0.760654      0.798095     -0.215630
O      15.33729     13.34794      2.79921         0.521501      0.766439     -0.890867
O      15.30258     13.46037     15.85257         0.182409     -0.185952     -0.470655
O       3.80543      1.98751      7.15756        -0.160934      0.023246     -0.748941
O       3.79081     13.43716      7.24985        -0.014442      0.329137     -0.906912
O      15.29693      1.91740      7.20664         0.974513      0.069385     -0.792172
O      15.27287     13.33706      7.19276         0.607398      0.395486     -0.828454
O       3.71404      1.93232     11.54675         1.104923     -0.506699     -1.108605
O       3.75042     13.38231     11.46233         0.823547      0.147495     -0.403385
O      15.34191      1.82750     11.51802         0.135528      0.636598     -0.793805
O      15.29797     13.27272     11.41647         0.279243      0.653683     -0.171805
O       3.90286      5.71092      2.77875        -0.694030     -0.063075     -0.321958
O       3.76228      5.66273     15.92759        -0.066503      0.183930     -0.697689
O       0.01257      5.72153      2.78488        -0.674022     -0.009516     -0.502561
O      15.25716      5.61358     15.80449         1.065919      0.416712     -0.309109
O       3.77518      5.86788      7.09234        -0.360908     -0.377925     -0.883888
O      15.19978      5.83250      7.17030         0.974071     -0.382852     -0.639006
O       3.73296      5.79442     11.52083         1.073259     -0.331763     -0.911245
O       0.02396      5.63890     11.53527        -0.706134      0.113767     -0.508193
O       3.78471      9.47756      2.78665         0.701893      0.290937     -0.851992
O       3.74372      9.49758     15.86038        -0.072918      0.425815     -0.672275
O      15.35958      9.63833      2.77880         0.776938     -0.510100     -0.807144
O      15.19487      9.45153     15.81250         1.115148      0.431426     -0.299693
O       3.83011      9.52982      7.06592        -0.605206     -0.274376     -0.500398
O      15.25000      9.68278      7.07415         0.701301     -0.277388     -0.494670
O       3.72484      9.49361     11.49394         1.238800      0.735233     -0.762909
O      15.25999      9.60080     11.46220         0.310904      0.095843     -0.356266
O       7.61319      1.91161      2.87005         0.865951     -0.272552     -0.536108
O       7.65160      1.93274     15.85643        -0.332699     -0.371161     -0.707524
O       7.72379     13.30780      2.89370        -0.181681      0.002640     -0.772653
O       7.57467     13.34429     15.87728         0.029794      0.016400     -0.930362
O       7.59523      1.91879      7.18636         0.675632      0.151895     -0.761611
O       7.51256     13.38486      7.08474         0.621288      0.053931     -0.373995
O       7.65618      1.82372     11.52433         0.096727      0.094880     -0.584584
O       7.69793     13.46429     11.54461        -0.553066      0.091966     -0.983258
O       7.64751      5.62778      2.77811         0.248591      0.349210     -0.604036
O       7.55605      5.72573     15.86630         1.151149     -0.140110     -0.722002
O       7.69296      5.82661      7.21870        -0.618159     -0.028924     -0.792040
O       7.50613      5.77400     11.59577         1.326742     -0.485317     -1.206284
O       7.60286      9.62547      2.81620         1.456864     -0.053230     -0.728641
O       7.62672      9.39618     15.85593        -0.235584      0.821458     -0.842447
O       7.59747      9.62302      7.16513         0.677631      0.048660     -0.813779
O       7.69513      9.46347     11.46333        -0.318304      0.071821     -1.083622
O      11.56585      1.92599      2.90140        -0.413929     -0.344122     -0.935280
O      11.50171      1.87553     15.90690         0.016026     -0.165128     -0.441643
O      11.53036     13.36569      2.83527        -0.414476      0.264275     -0.778510
O      11.45946     13.37384     15.67598        -0.041192      0.266191      0.041542
O      11.42609      1.85950      7.10033         0.480754      0.252055     -0.666427
O      11.40166     13.45245      7.18876         0.731116      0.074127     -0.806022
O      11.46525      1.93373     11.66200         0.424829     -0.360859     -0.967457
O      11.45493     13.35121     11.60044        -0.387452      0.407783     -0.630201
O      11.52745      5.89134      2.66323        -0.350725     -0.610410     -0.502109
O      11.50904      5.60992     15.81685        -1.128436      0.241441     -0.294431
O      11.51003      5.70527      7.17562        -0.082126      0.058221     -0.589583
O      11.50079      5.61455     11.62752         0.271261      0.210235     -0.806000
O      11.52864      9.41456      2.79601         0.005343      0.717217     -1.178542
O      11.40598      9.53661     15.82256        -0.517152      0.034100      0.037972
O      11.45739      9.65534      7.16206        -0.099800      0.138553     -0.648443
O      11.44951      9.46498     11.49769         0.168570      0.254371     -0.550316
O       1.87397      3.82437      2.79928         0.669829     -0.602127     -0.222463
O       1.96855      3.79083     15.81101        -0.564233      0.012425     -0.396125
O       1.96760      0.01341      2.77361        -0.884682     -0.515235     -0.485587
O       1.99393      0.06722     15.86435        -0.052909     -1.708958     -0.553480
O      13.44196      3.82116      2.91123         0.072832      0.290723     -1.002109
O      13.39090      3.77220     15.95136         0.234292     -0.378919     -0.843019
O      13.45059     15.34618      2.77287        -0.033539     -0.469996     -0.372523
O      13.45200     15.30689     15.95948        -0.772916      0.469767     -0.987942
O       1.82788      3.90804      7.10824        -0.021833     -0.007494     -0.654377
O       1.90535     15.35548      7.16038        -0.324566      0.041176     -0.863993
O      13.43273      3.80941      7.08280        -0.180732      0.222143     -0.455708
O      13.49381     15.35297      7.23679        -0.643750     -0.175945     -0.984956
O       1.93424      3.82379     11.42539        -0.440661     -0.349628     -0.449203
O       1.85524     15.27592     11.42220         0.124558      0.848282     -0.335481
O      13.40795      3.68610     11.65765         0.447686      1.114323     -0.852377
O      13.36678     15.31627     11.45697        -0.094676      0.138229     -0.097563
O       1.94733      7.63131      2.82873        -0.442372      0.378008     -1.040023
O       1.91719      7.55086     15.95002        -0.709725      0.517173     -0.939708
O      13.54719      7.62221      2.90009        -0.071997      0.550698     -1.227787
O      13.28453      7.62190     15.76749         0.105976     -0.376115     -0.045912
O       1.70907      7.66610      7.06525         0.339387      0.238927     -0.740275
O      13.25502      7.75950      7.12093         0.729982     -0.683653     -0.629667
O       1.83068      7.75280     11.50978        -0.377603     -1.059143     -0.735689
O      13.47134      7.57129     11.62283        -0.488721      0.169642     -1.133960
O       2.09399     11.53068      2.72335        -1.380532     -0.387376     -0.931709
O       1.82991     11.43583     15.86240        -0.351226      0.267759     -0.784154
O      13.52996     11.43887      2.77707        -0.910050      0.339748     -0.903241
O      13.38073     11.48351     15.84839        -0.023139      0.317610     -0.427571
O       1.99723     11.46928      7.22716        -0.797940      0.178193     -1.130332
O      13.34905     11.54189      7.21541        -0.212935      0.106035     -0.843525
O       1.91459     11.52025     11.57571        -0.213092     -0.511075     -0.583443
O      13.37796     11.49126     11.61901        -0.239664     -0.823522     -0.849354
O       5.73136      3.77020      2.69010        -0.185456     -0.254228     -0.150458
O       5.70486      3.81041     15.93191         0.528829     -0.756921     -1.194114
O       5.88909     15.19811      2.77620        -0.333263      1.138682     -0.310329
O       5.74926     15.24318     15.73512        -0.185146      0.897587     -0.642693
O       5.73120      3.88528      7.04280        -0.036582      0.172078     -0.152636
O       5.69263      0.08109      7.13324        -0.091026     -1.057856     -0.377077
O       5.78738      3.77507     11.53892        -0.577038      0.742745     -0.788753
O       5.65536     15.33387     11.39032         0.243235     -0.008438     -0.130140
O       5.78607      7.63888      2.72497         0.154018     -0.445542     -0.563196
O       5.53984      7.65288     15.77534         0.556224     -0.282757     -0.150654
O       5.72789      7.74676      7.28606         0.502760     -0.724294     -1.406988
O       5.70845      7.66817     11.58949        -0.115031     -0.520121     -1.300968
O       5.67801     11.43553      2.82870         0.089780      0.254905     -0.307163
O       5.67503     11.40978     15.73040         0.463360      0.484244     -0.252201
O       5.59106     11.50967      6.86733         0.421446     -0.030617      0.023655
O       5.72149     11.54135     11.39411         0.112123     -0.981647     -0.316300
O       9.61724      3.82387      2.69327         0.173040      0.103634     -0.525321
O       9.56916      3.75314     15.99156         0.247378      0.832177     -0.887482
O       9.59798     15.29488      2.93001        -0.052778      0.170801     -0.839743
O       9.44691     15.25076     15.73195         0.546888      0.927048     -0.078605
O       9.50341      3.86289      7.19616         0.181936     -0.646812     -0.700426
O       9.49436     15.32598      7.01467        -0.320653      0.312800     -0.255466
O       9.56666      3.78136     11.61422        -0.431132      0.292346     -0.801911
O       9.67809     15.34767     11.56612        -0.743909     -0.282266     -0.586972
O       9.49563      7.63195      2.77361         0.039261      0.115536     -0.631082
O       9.50536      7.56284     15.78121         0.651179      0.872323     -0.539692
O       9.69306      7.65890      6.97380        -0.673230      0.351794      0.056018
O       9.67013      7.51345     11.43166        -0.621360      1.562187     -0.191385
O       9.70393     11.39796      2.71981        -0.352201      0.947792     -0.483336
O       9.48716     11.46317     15.89463         0.193546     -0.128079     -0.700814
O       9.58637     11.52717      7.31133        -0.637836     -0.065099     -1.052802
O       9.54297     11.37589     11.43095         0.067427      1.076196     -0.567529
