  # total energy = -7863.66758530 
CRSYTAL
PRIMVEC
    15.010000000000000    0.0000000000000000    0.0000000000000000
     0.0000000000000000   15.010000000000000    0.0000000000000000
     0.0000000000000000    0.0000000000000000    16.400000000000000
PRESSURE
16.9694 17.1193 8.88228 -0.044775 -0.27133 0.050572
PRIMCOORD
320 1
Pb       3.62725      3.59851      4.11589         0.217053      0.578747     -0.600029
Pb       3.75676      3.73093     16.30358        -0.090055      0.245329      0.704636
Pb       3.82319     14.92983      4.18295        -0.716323     -0.144474      0.129789
Pb       3.78773      0.06252     16.34696        -0.171398     -0.158144      0.325591
Pb      14.97175      3.79386      4.25668         0.435360     -0.309239     -0.885341
Pb      14.91818      3.83859      0.05904         0.328492     -1.014299     -0.146402
Pb      14.94610     14.98873      4.27151         0.290794     -0.592819     -0.310545
Pb       0.01017      0.03716     16.24598         0.171863      0.322137      0.490134
Pb       3.79987      3.70188      8.13438        -0.277631      0.020296      0.824203
Pb       3.85845     14.99088      8.33262        -0.343562     -0.333860     -0.264036
Pb       0.08292      3.69545      8.06783        -0.246076      0.251153      1.251506
Pb       0.16129     14.98909      8.29283        -0.526006     -0.301553     -0.679407
Pb       3.99926      3.73369     12.35106        -0.792985      0.272310      0.311366
Pb       3.73901      0.01419     12.32593        -0.005263      0.031915     -0.450273
Pb       0.02304      3.77925     12.27575        -0.087571     -0.247719     -0.383626
Pb      14.94387     14.99564     12.24091         0.157897      0.094409      0.259226
Pb       3.59735      7.67730      4.22402         0.457835     -0.571514     -0.694636
Pb       3.77181      7.54415     16.36681         0.066053     -0.206005      0.038520
Pb      14.86096      7.54303      4.13405        -0.131710     -0.262733     -0.192532
Pb      14.93893      7.46080      0.03003        -0.125947      0.453068      0.111825
Pb       3.67961      7.52157      8.32908         0.189416     -0.043469     -0.688018
Pb      15.00943      7.46923      8.07431        -0.254793      0.173422      0.409912
Pb       3.76585      7.32081     12.40739         0.010776      0.113729     -0.161002
Pb       0.06710      7.49476     12.24105        -0.534586     -0.110716      0.656388
Pb       3.59644     11.23236      3.99977         0.164351     -0.021929      0.021523
Pb       3.67807     11.30814      0.07261         0.118164     -0.153537      0.539362
Pb      14.82851     11.19559      4.21503         0.079849      0.604068     -0.998136
Pb      14.95524     11.25667     16.39846         0.286158     -0.326566      0.873152
Pb       3.53127     11.17246      8.25656         0.937801      0.288298      0.029077
Pb      14.94887     11.14996      8.14773        -0.328758      0.453510      0.482486
Pb       3.69281     11.11826     12.49158         0.220386      0.522976     -0.729399
Pb      14.97793     11.18192     12.31002        -0.474343      0.139959     -0.267122
Pb       7.44899      3.82531      4.29143         0.212278     -0.169768     -0.558680
Pb       7.49774      3.74833      0.14133         0.161716      0.199003      0.093680
Pb       7.48444      0.06470      4.26439         0.363263     -0.607694     -0.892842
Pb       7.59877      0.03919     16.39691        -0.071844     -0.235942      1.049615
Pb       7.61902      3.81347      8.20269        -0.106746     -0.416121      0.284595
Pb       7.41324     14.83634      8.33538         0.813389      0.628876      0.119208
Pb       7.59786      3.64516     12.39178        -0.760116      0.408779      0.069733
Pb       7.51539      0.02039     12.28580         0.059669     -0.205234     -0.680821
Pb       7.36577      7.46825      4.20262         0.126122      0.062653     -0.572037
Pb       7.48987      7.40978      0.09105        -0.033220      0.240004      0.701582
Pb       7.50607      7.49145      8.08603        -0.116313     -0.614537      0.920849
Pb       7.58655      7.46524     12.34458         0.104397      0.319212      0.012511
Pb       7.15652     11.23055      4.18993         1.320210      0.523732     -0.735792
Pb       7.39759     11.28937      0.03498         0.089913     -0.130805      1.087956
Pb       7.37676     11.09653      8.26644         0.054669      0.242503      0.684387
Pb       7.51842     11.20521     12.50369         0.159383      0.086928     -1.024015
Pb      11.41061      3.68068      4.24028        -0.932700      0.149971     -0.566490
Pb      11.33854      3.84889      0.06896        -0.980053     -0.873684      0.256942
Pb      11.28282      0.00660      4.22768        -0.392122     -0.096405     -0.766617
Pb      11.35464      0.11121     16.33429        -0.556099     -0.035902      1.012331
Pb      11.44278      3.73444      8.25392        -0.968637      0.306441     -0.015788
Pb      11.33868     14.91014      8.21713        -0.763387     -0.158955     -0.005193
Pb      11.32920      3.75365     12.26000        -0.121882     -0.241917      0.073004
Pb      11.31590     14.86535     12.31634        -0.503254     -0.027672     -0.270727
Pb      11.13659      7.47145      4.15027        -0.092575      0.287211      0.384363
Pb      11.24570      7.42090      0.09646        -0.942139      0.568505      0.213130
Pb      11.22577      7.53084      8.13280        -0.040509     -0.261318      0.412939
Pb      11.24070      7.45014     12.42284        -0.320076      0.434404     -0.901152
Pb      11.04474     11.33550      4.21718         0.395658     -0.224464     -0.315799
Pb      11.11330     11.34191      0.01403        -0.123393      0.080761      0.765951
Pb      11.13151     11.23033      8.21231         0.603832      0.200597      0.104021
Pb      11.26544     11.15332     12.43494        -0.335422      0.289153     -1.255928
Ti       1.77096      1.86292      2.00117         0.977604      0.672245     -0.274249
Ti       1.90864      1.95107     14.33053        -1.321606     -0.508208      0.305735
Ti       1.79125     13.21684      2.08158        -0.144205     -2.055302     -0.060579
Ti       1.88299     13.12381     14.38156        -0.481262      0.770303     -0.568593
Ti      13.18584      1.89798      2.20511        -2.790371     -1.113087     -1.308445
Ti      13.14817      1.90429     14.31576         0.612747      0.240043     -0.512444
Ti      13.11031     13.08867      1.95490        -0.359236      0.129311      2.276297
Ti      13.13965     13.04061     14.42950        -0.456115      2.250200     -1.398081
Ti       1.93438      1.85395      6.22211        -0.609327     -0.867609     -0.143548
Ti       1.95193     13.09654      6.17551        -1.010751      0.761259     -0.122129
Ti      13.16023      1.85125      6.24528        -0.551944     -0.657479      0.807508
Ti      13.12152     13.09071      6.23967         0.623892      0.309775      0.357351
Ti       1.87340      1.85903     10.24504         0.003411      0.746537      0.620828
Ti       1.82194     13.10244     10.26141         0.799692     -0.156795      0.304771
Ti      13.06209      1.81613     10.17529         1.808399      0.502649      1.113397
Ti      13.12458     13.08128     10.22717        -0.402715     -1.012340      0.062359
Ti       1.83603      5.67200      2.05791         0.419697     -1.568765      0.628352
Ti       1.86454      5.65459     14.48507         0.266091     -1.197163     -0.754781
Ti      13.05142      5.62973      2.07294        -0.014079     -0.198801      1.192567
Ti      13.11184      5.67247     14.36631         0.366623     -1.284871      0.355765
Ti       1.90584      5.58294      6.08922         0.095617      0.888431      0.212360
Ti      13.18674      5.57093      6.18648        -1.488582      1.606311     -0.187919
Ti       1.87426      5.62585     10.17927        -0.327142     -0.585344     -0.200766
Ti      13.09965      5.66557     10.21439        -0.399171     -1.331770      0.145133
Ti       1.65336      9.30239      2.04880         0.881821      1.933597      0.605159
Ti       1.81211      9.35598     14.41633        -0.129849      0.473722      0.098044
Ti      12.88563      9.29885      2.02552         1.820640      1.249992     -0.058368
Ti      13.02969      9.35019     14.39539         0.972847     -0.181609     -0.613443
Ti       1.78030      9.40345      6.14809         0.797523     -0.748080     -0.081238
Ti      12.98578      9.39054      6.12270         0.983121     -0.382082      0.986738
Ti       1.91010      9.34438     10.34539        -0.527219      0.191503     -0.076384
Ti      13.11664      9.27166     10.26122        -0.360185      1.516811     -0.191657
Ti       5.61788      1.87818      2.20372         0.582495      0.113987     -1.008600
Ti       5.70017      1.83312     14.47336         0.613013      0.959487     -0.743771
Ti       5.55232     13.14726      2.08672         0.940503     -0.499506     -0.125813
Ti       5.59323     13.16030     14.40775         0.437636     -1.388524     -0.770377
Ti       5.67444      1.80277      6.19495        -0.169089     -0.447239     -0.073947
Ti       5.63809     13.04652      6.26911        -0.727411      0.233269     -0.122989
Ti       5.65109      1.90329     10.24956         0.238800     -0.538169      1.303303
Ti       5.61069     13.02199     10.34141         0.188632     -0.244358      0.292738
Ti       5.52685      5.60185      2.13780         0.569732     -0.056671     -0.203723
Ti       5.72986      5.60560     14.40921        -0.268057     -0.024767     -0.425033
Ti       5.57100      5.55765      6.22219         0.405794      0.302316     -0.815219
Ti       5.63668      5.62237     10.22761        -0.267401     -0.629202      1.429323
Ti       5.53160      9.31148      2.04007         0.032114      0.293236      0.132067
Ti       5.61555      9.38586     14.42493         0.157647     -0.336033      0.132045
Ti       5.54587      9.32013      6.22536        -0.254027      0.387776      2.062032
Ti       5.63537      9.23264     10.33516         0.403410      2.540967     -0.897563
Ti       9.33088      1.91642      2.13163         1.642814     -1.360100      0.681671
Ti       9.43205      1.99986     14.32930         0.377766     -0.766640      0.172175
Ti       9.38268     13.15170      2.23206        -0.665335      0.159705     -0.494226
Ti       9.32407     13.19576     14.40490         0.684920     -0.029148     -0.858504
Ti       9.36802      1.90700      6.20944         0.862795     -1.448557      0.181767
Ti       9.30298     13.13320      6.20906         0.789758      1.130859      0.953521
Ti       9.38396      1.85809     10.18900        -0.007186     -0.913966     -0.198448
Ti       9.35672     13.02618     10.22859         0.822030      0.828185      0.477858
Ti       9.32755      5.62955      2.19899        -0.366363      0.153787     -0.756703
Ti       9.41299      5.69456     14.44559        -0.827123     -0.408786     -0.030870
Ti       9.44197      5.63695      6.16057        -0.900533     -0.396634     -0.186475
Ti       9.30401      5.54244     10.33983         1.471498      0.989104     -0.622279
Ti       9.26024      9.47146      2.14419         0.010753     -0.712343      0.640952
Ti       9.34565      9.41080     14.49335        -0.301294     -1.261719     -0.867099
Ti       9.21419      9.40123      6.13368         1.411341      0.316869     -0.553698
Ti       9.35231      9.34303     10.19492         0.463454     -0.305811      2.075628
O       1.79228      1.97438      0.13692         0.651991     -0.560674      1.254054
O       1.80336      1.83036     12.55144        -0.302185      0.437300     -1.154686
O       2.01175     13.08195      0.24187        -0.612434      0.342702     -0.680265
O       1.81904     13.17216     12.55463        -0.124043     -0.219497     -0.074755
O      13.05071      1.82498      0.37043         0.404882      0.567109     -0.501356
O      13.15503      1.96740     12.47891         0.187804     -0.252563      0.143144
O      13.00880     13.20050      0.19683         0.506609     -0.400136     -1.168160
O      13.08627     13.00417     12.49118         0.068386      0.329974      1.474593
O       1.93575      1.73901      4.40481        -0.442539      0.411253     -0.468994
O       1.99374     13.14227      4.34103        -0.517596      0.084013     -0.136263
O      13.25955      1.81222      4.43240        -0.165883      0.344191     -0.933560
O      13.16188     12.99244      4.43705        -0.260375      0.048894     -1.026020
O       2.00190      1.91450      8.40431        -0.275621     -0.349749      0.668265
O       1.80919     13.10844      8.41789         0.649934     -0.493315      0.313483
O      13.20150      1.78693      8.37347        -0.347661      0.386827      0.051474
O      13.14255     13.10463      8.40061         0.037323      0.076269      0.108501
O       1.80819      5.39999      0.22825         0.292023      1.028192     -0.034499
O       1.79573      5.68218     12.65991         0.286006      0.011613     -0.716446
O      13.09385      5.64960      0.21721        -0.176047      0.232491      0.344810
O      13.00511      5.61978     12.58980         0.363938     -0.121531     -0.977402
O       1.90051      5.65308      4.25248        -0.146243     -0.162824      0.244631
O      13.09148      5.57077      4.34670         0.355627      0.300873     -0.002487
O       1.87837      5.80903      8.35420        -0.067542     -0.842068      0.825690
O      13.08714      5.71398      8.40374        -0.039201     -0.104894     -0.581500
O       1.72882      9.29506      0.24744         0.302573      0.299384     -1.056372
O       1.78147      9.31708     12.58412         0.306633      0.045485     -0.489426
O      12.98088      9.08721      0.18228         0.380458      0.738538     -0.335009
O      13.13257      9.33335     12.47757        -0.151483      0.417596      1.063217
O       1.85228      9.32259      4.30480        -0.553475     -0.024748      0.065912
O      13.05883      9.46908      4.33032         0.287597     -0.117400     -0.515375
O       1.78324      9.36924      8.49030         0.512334     -0.016638     -0.298467
O      13.24081      9.39318      8.41504        -0.564933     -0.615577      0.211263
O       5.71554      1.66858      0.22441        -0.592926      0.737421      0.356571
O       5.93136      1.86757     12.59021        -0.748172     -0.024786      0.371812
O       5.53529     13.12319      0.20326        -0.473733      0.253319      0.882210
O       5.73217     13.08573     12.54923        -0.031658     -0.102223      0.138783
O       5.72820      1.96447      4.32864        -0.612665     -0.524390      0.055938
O       5.54458     13.10215      4.45285        -0.065161     -0.224203     -0.875333
O       5.49015      1.89971      8.47623         0.188973     -0.723954     -0.953094
O       5.52198     13.19469      8.47380         0.639712     -0.347046     -0.562696
O       5.71928      5.66050      0.26831        -0.272279     -0.418597     -0.002818
O       5.52420      5.60173     12.54283         0.814749      0.463477      0.094923
O       5.58270      5.48682      4.37957        -0.258610      0.225705      0.210008
O       5.57851      5.64880      8.47191         0.097298     -0.130443     -1.449100
O       5.49553      9.33610      0.21241         0.145252     -0.096582     -0.027192
O       5.59607      9.45541     12.58665         0.416290     -0.554166     -0.338047
O       5.65366      9.44140      4.49444        -0.308313     -0.769850     -2.368268
O       5.65849      9.26945      8.41398        -0.201203      0.420463      0.542157
O       9.45897      1.75163      0.31215        -0.117238      0.540271     -0.933005
O       9.31673      1.92439     12.50914         0.246174     -0.448098      0.284303
O       9.52576     13.14885      0.38718        -0.699906     -0.520333     -0.914358
O       9.37591     12.98630     12.53633        -0.114864      0.872913      1.054424
O       9.36126      1.80730      4.37242        -0.051122      0.052004     -0.135714
O       9.34026     13.21146      4.42309         0.375512     -0.010221     -0.591028
O       9.36563      1.98642      8.37373         0.126810      0.121674      0.378800
O       9.42666     13.19402      8.41052        -0.306912     -0.641938     -0.529792
O       9.26531      5.55859      0.19613         0.210865      0.114672      0.953374
O       9.52206      5.73283     12.55492        -0.854271     -0.025713      0.144889
O       9.50131      5.61954      4.28381        -0.630687     -0.148123      0.555978
O       9.38189      5.54040      8.48011        -0.060701      0.021099     -0.416645
O       9.45408      9.53468      0.33130        -0.402518     -0.355331     -0.924120
O       9.29454      9.31638     12.61202         0.011095     -0.152193      0.143001
O       9.28646      9.25128      4.32937        -0.042928      0.362111      0.120029
O       9.28114      9.32927      8.44590         0.162001      0.466828     -2.145670
O       3.77190      2.12039      2.20817        -0.470110     -0.555049      0.208250
O       3.79824      1.64563     14.39353         0.107343     -0.296795      0.789663
O       3.65351     12.84981      2.33624         1.016290      0.444533     -0.150933
O       3.72658     13.32090     14.43314         0.617294      0.717105      0.642196
O      14.95626      1.71016      2.39287         1.973722     -0.480974      0.178872
O       0.01038      2.22513     14.71095        -0.436463     -0.277045     -0.546768
O      14.94472     13.35311      2.33759         0.021776     -0.360939      0.014810
O      14.98387     12.91936     14.71270         0.364700     -0.386650     -0.174045
O       3.74409      2.10037      6.40401         0.861263     -0.257844     -0.161190
O       3.78656     12.76073      6.40086        -0.717366      0.206000      0.578649
O       0.01835      1.88873      6.54572         0.555246     -0.699861     -0.444468
O       0.02161     13.22255      6.31915         0.241300     -0.124267      0.301463
O       3.78430      2.06437     10.78568        -0.310150     -0.531711     -1.153854
O       3.77197     12.85916     10.47206        -0.714259      0.318069      0.390640
O      14.96886      1.60341     10.48704         1.180513      0.397467     -0.332330
O      14.99658     13.42480     10.38931         0.352259     -0.540463      0.463383
O       3.72861      5.22063      2.26661        -0.323488      0.710662     -0.195389
O       3.85418      5.80982     14.60928        -1.682720      0.425162      0.552873
O      14.95306      5.93451      2.24828         0.074111     -0.206178      0.109106
O      14.95706      5.24851     14.60556         0.317492      0.932861      0.006683
O       3.74467      5.33190      6.48448         0.080007      0.279929     -0.520179
O       0.00389      5.70817      6.37338         0.800785      0.280709     -0.064808
O       3.69637      5.32924     10.55792         0.539625      0.119037     -0.192347
O      14.92917      6.03473     10.44840         1.398911     -0.579720      0.063000
O       3.69427      9.43693      2.38056        -0.519185      0.207777     -0.139445
O       3.72847      9.11093     14.48073         0.154126     -0.205879      0.611027
O      14.85205      9.02308      2.26436         0.561992     -0.339428      0.150601
O      14.94272      9.67550     14.59162         0.086697     -0.126506      0.163532
O       3.73542      9.58159      6.35302        -0.910552      0.000938      0.477751
O      14.98770      9.26016      6.31962        -0.436410     -0.216588      0.116883
O       3.76428      9.57112     10.51537        -0.643857      0.485094      0.154736
O       0.00944      9.06450     10.51520         0.089254      0.162726      0.054357
O       7.52538      1.52875      2.30463        -0.787564     -0.039988     -0.073827
O       7.56727      2.23139     14.66852         0.177171     -0.415427      0.092693
O       7.43289     13.19627      2.43633        -0.612893      0.620412     -0.581766
O       7.49795     12.87335     14.85264         0.188364      0.238338     -1.072918
O       7.52567      1.49769      6.36453        -0.917117      0.282233      0.333020
O       7.49508     13.51330      6.36562        -0.347207     -0.225667      0.509072
O       7.52872      1.72287     10.38079        -0.381252     -0.752587      0.202858
O       7.56384     13.31347     10.36024        -1.572951      0.479598      0.418513
O       7.48813      5.94087      2.37006        -0.056455     -0.575071      0.235828
O       7.55385      5.20825     14.58173        -0.074264      0.489621     -0.124817
O       7.46845      5.75127      6.27755         0.444122     -0.011418      0.599358
O       7.47520      5.98095     10.49446        -0.073881     -0.394871      0.192122
O       7.43007      9.07143      2.36117        -0.095132      0.184526     -0.243641
O       7.50183      9.69436     14.74453        -0.902884     -0.205546     -0.300869
O       7.48593      9.11516      6.49272        -0.923236      0.301084     -0.315594
O       7.47084      9.02482     10.46572         0.433134     -0.047519      0.463182
O      11.29364      2.19383      2.45509        -0.334703     -0.728714      0.003965
O      11.31718      1.53271     14.40979        -1.286298     -0.070200      0.538098
O      11.26658     12.82588      2.45692         0.120108     -0.362379     -0.156288
O      11.21848     13.41450     14.65250        -0.009190     -0.179269     -0.656034
O      11.29071      2.24481      6.32615         0.459315     -0.795150      0.220378
O      11.24614     12.96700      6.46137        -0.387420     -0.112165     -0.096845
O      11.30522      2.23771     10.26665        -1.217121     -0.532759      0.799746
O      11.25018     12.91434     10.41498         0.225154     -0.243321      0.417832
O      11.16391      5.28692      2.24416         1.619747      0.161031     -0.101986
O      11.25394      5.96690     14.67983         0.010182     -0.083131     -0.117046
O      11.21960      5.39520      6.37281         0.871641      0.384480      0.397098
O      11.19143      5.22919     10.51662         0.533264      0.938570     -0.554608
O      11.18791      9.69455      2.35943        -1.309583     -0.028411      0.339923
O      11.22554      9.06208     14.51526        -0.404076      0.091217      0.425514
O      11.20509      9.48776      6.33890        -1.017866      0.339199      0.726646
O      11.23159      9.59710     10.36077         0.220504      0.408739      0.344979
O       1.69997      3.69381      2.34775        -0.743789      0.252736      0.467749
O       2.12796      3.77647     14.60313         0.400578      0.079768     -0.330689
O       2.03543     14.97568      2.24328         0.450672      1.893022      0.151468
O       1.60813      0.03591     14.49720         0.320674     -0.597462      0.799147
O      13.37801      3.81150      2.47882        -0.027867     -0.190308     -0.416190
O      12.77329      3.71556     14.66421         0.458870      0.943285     -0.244032
O      12.87502     14.93715      2.26652        -0.029096      0.674902      0.735935
O      13.51970      0.03898     14.56494        -1.030397     -0.627842     -0.346179
O       1.73799      3.76220      6.47372         0.251993     -0.214387     -0.510878
O       1.93486     14.96966      6.50180         0.683556      0.422345     -0.018440
O      13.35623      3.77348      6.42405        -0.348319     -0.616979      0.059541
O      13.10556     14.98331      6.43887        -0.490689      0.803779     -0.183317
O       1.58730      3.74799     10.31264        -0.109660      0.307175      0.699010
O       2.04920     14.99622     10.39308         0.546998      0.135173      0.426654
O      13.37134      3.79414     10.42188         0.288314     -0.598940      0.139373
O      12.95692     14.93932     10.60625        -0.478682      1.414580     -0.173550
O       2.07626      7.48889      2.22103         0.263030     -1.049004      0.238984
O       1.69275      7.50977     14.70013        -0.330269     -0.411492      0.188240
O      12.74603      7.48457      2.45009         0.303660     -1.324429     -0.322987
O      13.33009      7.51817     14.51808         0.621728     -0.308611      0.166345
O       2.08685      7.43449      6.32844        -0.233405      1.327559      0.096404
O      13.05007      7.47700      6.38246        -0.231843      0.520023     -0.009229
O       2.27604      7.45891     10.43440        -0.818091      0.667469      0.709745
O      12.74084      7.47147     10.48979         0.026011      0.265218      0.109150
O       1.54226     11.20844      2.21153         0.213703     -0.316490      0.493113
O       2.22854     11.23785     14.62201        -1.006042     -0.293746     -0.193584
O      13.33064     11.08979      2.11651         0.544215      1.933562      0.105863
O      12.76849     11.30836     14.67543         0.399308     -2.030390     -0.141959
O       1.68304     11.23881      6.40967         0.088878     -0.569426      0.140405
O      13.24254     11.24613      6.53824         0.061719     -1.142565     -0.395210
O       1.67048     11.25864     10.68081        -0.058533     -0.625811     -0.601108
O      13.28961     11.23321     10.47609         0.813571     -0.581306      0.174827
O       5.93979      3.74243      2.38891        -0.051811     -0.573885     -0.589149
O       5.37987      3.73021     14.55844         0.251576     -0.499244      0.469424
O       5.36748     14.96487      2.46257         0.042411      0.244126     -0.572464
O       5.87419     14.94555     14.60122         0.186261      1.133493     -0.030812
O       5.88682      3.59140      6.49541        -0.256808      1.972632      0.058480
O       5.29392     14.94313      6.36291         0.015001      0.840798      0.374494
O       5.97391      3.76634     10.44694        -0.764783      0.052655      0.553871
O       5.53397     14.99509     10.59063        -0.425802      0.152836     -0.242556
O       5.39578      7.45387      2.35838        -0.444371     -0.064351      0.384656
O       5.95936      7.47502     14.67001        -0.342701      0.542475     -0.402697
O       5.42651      7.46004      6.41550        -0.061274     -0.887869     -0.206360
O       5.29860      7.49018     10.42279        -0.387143     -1.531435      0.790691
O       5.67339     11.17637      2.35715         0.068482      0.610047     -0.147433
O       5.34339     11.25948     14.65512         0.194145     -0.316575      0.055977
O       6.00865     11.22390      6.41018        -0.599643     -0.150464      0.455606
O       5.93163     11.17773     10.40379        -0.143317      0.577140      0.432721
O       9.05284      3.67446      2.29840        -0.225385      1.617386      0.158462
O       9.80154      3.82733     14.52086        -0.284544     -1.188939      0.253048
O       9.67348     14.91491      2.42809        -0.159517      1.521481      0.123578
O       8.98672      0.03629     14.57307         0.882490     -0.230978     -0.575624
O       9.11046      3.72878      6.39732         0.011656      1.266708     -0.254051
O       9.72474      0.07223      6.57638        -0.361769     -0.664517     -0.814326
O       9.07429      3.68416     10.63805         0.437148      1.176338     -0.677623
O       9.63173     14.98976     10.44208         0.018535      0.813378      0.460093
O       9.72275      7.48376      2.33536        -0.646407      0.223395     -0.533937
O       8.93544      7.51114     14.70329         0.973371     -0.076864     -0.393000
O       9.50692      7.55012      6.35211         0.112683     -1.659789      0.605959
O       9.66240      7.50940     10.38051        -0.069399     -0.958413      0.660066
O       9.00293     11.24694      2.54254         0.970619     -0.247274     -0.225298
O       9.58374     11.20592     14.48338         0.483050      1.735884      0.865944
O       9.01563     11.29727      6.37932         0.761113     -0.788873      0.184361
O       9.07785     11.23999     10.55520         0.230808     -1.200266     -0.163585
