  # total energy = -7882.94096080 
CRSYTAL
PRIMVEC
    15.6000000000000000    0.0000000000000000    0.0000000000000000
     0.0000000000000000   15.6000000000000000    0.0000000000000000
     0.0000000000000000    0.0000000000000000    17.640000000000000
PRESSURE
-4.01592 -4.17441 -0.902022 -0.021183 0.396288 -0.005082
PRIMCOORD
320 1
Pb       3.88551      3.84390      4.37705         0.097901      0.027535      0.063189
Pb       3.99514      3.99847     17.57015        -0.691292     -0.642583      0.293689
Pb       3.75136     15.45162      4.33912        -0.107876      0.193870     -0.046025
Pb       3.79620     15.57614      0.04552        -0.189996      0.285684     -0.462287
Pb      15.53470      3.84209      4.34716         0.248806     -0.000450     -0.083127
Pb       0.04418      3.96883     17.58109         0.183750     -0.510829      0.488717
Pb      15.58157     15.54128      4.34635         0.126045      0.339089     -0.381658
Pb      15.40768     15.58238     17.61062         0.884969     -0.078372      0.766274
Pb       3.83330      4.01066      8.77968         0.116063     -0.217157     -0.349368
Pb       3.89143     15.57333      8.74725        -0.388595      0.511799     -0.157429
Pb      15.55744      3.98860      8.82283        -0.161662     -0.433580      0.005043
Pb      15.50502      0.00449      8.63740         0.417901      0.489177      0.208010
Pb       3.95818      3.76885     13.26728        -0.703762     -0.086659     -0.913100
Pb       3.91195     15.58673     13.14156        -0.647977      0.467111      0.591615
Pb       0.02376      3.95335     13.14515         0.543126     -0.440292      0.124478
Pb      15.49622     15.55249     13.20075         0.624866      0.326745     -0.174709
Pb       3.96162      7.75582      4.41826        -0.368019     -0.162468     -0.168431
Pb       4.00851      7.72185     17.56156        -0.240941      0.221499     -0.212227
Pb       0.03236      7.73344      4.28211         0.267320     -0.370435      0.329300
Pb       0.08562      7.72779     17.47868        -0.213151      0.555833      0.479751
Pb       3.86724      7.79268      8.76883        -0.104934     -0.409179     -0.189977
Pb      15.49024      7.79414      8.79492         0.770704      0.168346      0.082375
Pb       3.91305      7.74063     13.17414         0.505036      0.054364     -0.138142
Pb       0.08908      7.74431     13.14576        -0.433667      0.315217      0.376098
Pb       3.90031     11.64001      4.32119        -0.036558      0.178023      0.112834
Pb       3.83865     11.71992     17.56446         0.281958     -0.428081      0.294327
Pb       0.00975     11.74745      4.28964         0.010933     -0.294322      0.261738
Pb       0.00632     11.71633     17.44404        -0.362230     -0.288112      0.797746
Pb       3.82340     11.77979      8.86566         0.119051     -0.360985     -0.337768
Pb      15.54360     11.77904      8.74222         0.026217     -0.487232     -0.254511
Pb       3.85702     11.76989     13.14785         0.131332     -0.247213      0.346589
Pb      15.45806     11.80565     13.15818         0.370010     -0.660183      0.500302
Pb       7.73663      3.68012      4.38999         0.206028      0.812308      0.125578
Pb       7.77835      3.93944      0.00194         0.034186      0.108069     -0.229586
Pb       7.61144     15.50277      4.41251         0.905000     -0.326834     -0.420829
Pb       7.68994      0.03172     17.54673         0.242451     -0.495988      0.263009
Pb       7.59601      3.94197      8.83015         0.551707     -0.036012     -0.882061
Pb       7.74045      0.03889      8.80025         0.341033      0.278817     -0.182383
Pb       7.85509      3.92131     13.27435        -0.066812      0.221212     -0.378286
Pb       7.81585      0.10827     13.10502         0.044739     -0.501993      0.429083
Pb       7.84984      7.66784      4.37018        -0.059827      0.006438     -0.301731
Pb       7.77509      7.77059     17.59188        -0.195587      0.139107     -0.426109
Pb       7.70761      7.82208      8.78834         0.006836     -0.172792     -0.263808
Pb       7.79947      7.80755     13.17613        -0.128556     -0.207166      0.133347
Pb       7.76795     11.56478      4.34204         0.276698      0.274596     -0.085453
Pb       7.78253     11.64990     17.46291         0.002287      0.001960      0.512851
Pb       7.79100     11.75634      8.67754        -0.190132     -0.266945      0.243079
Pb       7.73917     11.80428     13.08998        -0.220897     -0.116919      0.406519
Pb      11.76567      3.79933      4.29679        -0.330655      0.322362      0.407118
Pb      11.66746      3.80844      0.01560        -0.101549      0.289337     -0.330236
Pb      11.63193     15.48037      4.35318        -0.179480     -0.222033     -0.213345
Pb      11.60961     15.51742      0.00414         0.446848      0.170889      0.248027
Pb      11.65465      3.91834      8.71881        -0.122851     -0.218469     -0.149036
Pb      11.73405      0.00802      8.73277        -0.447992      0.317621      0.210119
Pb      11.75801      3.91543     13.12254         0.055466     -0.267548      0.111166
Pb      11.63709      0.01964     13.11610         0.225952     -0.181895      0.434656
Pb      11.66438      7.75112      4.32866         0.085220     -0.272938      0.464032
Pb      11.63938      7.72636     17.57119         0.437201     -0.072050     -0.048104
Pb      11.65442      7.79366      8.74332        -0.092966      0.480705     -0.113543
Pb      11.67130      7.76182     13.10408         0.120086      0.159653      0.334461
Pb      11.68418     11.48085      4.29873        -0.019963      0.605877     -0.050390
Pb      11.63056     11.66810     17.52629         0.592366     -0.082538      0.219819
Pb      11.67042     11.76576      8.84655         0.259134     -0.540001     -0.476772
Pb      11.62136     11.70236     13.20308         0.490371     -0.132618     -0.197888
Ti       2.05745      2.00314      2.45059        -1.226546     -0.761592     -1.114534
Ti       1.96062      1.90955     15.63751         0.201057      0.039111     -1.009261
Ti       1.96532     13.60401      2.28023        -0.436010      0.253049      0.859441
Ti       2.03742     13.61619     15.58550        -0.024140      0.748211     -0.130778
Ti      13.67083      1.92796      2.30937         0.738373     -1.162085     -0.320294
Ti      13.64943      1.96794     15.74209         0.230612     -0.444545      1.393809
Ti      13.66056     13.59060      2.37221         0.098449      0.343006     -0.553085
Ti      13.72338     13.69551     15.57312        -0.410460     -1.143984      1.061830
Ti       1.92726      1.98947      6.76809        -0.067798     -0.503526     -0.250290
Ti       1.94880     13.70367      6.85807        -0.291833     -0.130099      0.055707
Ti      13.56200      1.91737      6.80828         1.031332      0.867163      0.326202
Ti      13.56934     13.59765      6.79425         0.393536      0.054860     -0.402551
Ti       1.92371      1.89609     11.16123         0.349850      0.333180      1.243202
Ti       1.98518     13.57826     11.16616        -0.853467      0.861484      0.903957
Ti      13.69462      1.91453     11.23466        -0.140303      0.151710     -0.901385
Ti      13.59635     13.62891     11.17757         0.106870      0.137197      0.178791
Ti       2.01385      5.80654      2.26071        -0.686536      0.295233      0.415309
Ti       1.92130      5.77970     15.53438         0.425994      0.128838      1.953409
Ti      13.64753      5.78431      2.34695         0.111555      0.466630     -1.225934
Ti      13.65475      5.77704     15.63915        -0.415300      0.823925      0.275997
Ti       1.85111      5.80246      6.83808         0.923853      1.169325     -0.486724
Ti      13.65762      5.84427      6.85781        -0.245383     -0.358847     -0.200926
Ti       2.03788      5.84751     11.17361        -0.015487     -1.480773      1.721702
Ti      13.66584      5.88883     11.24071         0.417815     -0.614492     -0.617101
Ti       1.98464      9.70660      2.39786        -0.687174     -0.419418      0.204859
Ti       1.96258      9.72445     15.56596        -0.299285     -0.264940     -0.479687
Ti      13.70443      9.62934      2.50249        -0.305999      0.878142     -1.582171
Ti      13.65781      9.70365     15.65090         0.635311      0.284690     -0.402092
Ti       2.01236      9.78026      6.85373        -0.698732     -0.572547      0.857380
Ti      13.75127      9.68818      6.78478        -1.111168      0.291970     -0.878320
Ti       1.97236      9.70537     11.27778        -0.266369      0.280731     -0.701987
Ti      13.71824      9.69735     11.24316        -0.944844      0.789553     -0.260754
Ti       5.88329      1.83495      2.41341        -0.590040      0.413142      1.149247
Ti       5.82473      1.89971     15.61295        -0.665427      0.070255     -0.553426
Ti       5.87586     13.57719      2.27395         0.127886     -0.101143      1.263577
Ti       5.86275     13.63678     15.65319        -0.129764     -0.076876     -0.646144
Ti       5.80279      1.89756      6.82372        -0.421919      1.145325      0.135282
Ti       5.84939     13.61103      6.84141        -0.156964      0.027547      0.599991
Ti       5.89099      1.95985     11.21563        -1.251743      0.577288     -1.116720
Ti       5.78487     13.73801     11.20274         0.801947     -1.221703      0.308616
Ti       5.81921      5.73090      2.38212         0.464152      0.584572     -0.164228
Ti       5.83225      5.78165     15.58477         0.383563      0.858697      3.446911
Ti       5.80160      5.80914      6.68181         0.100678      0.023134      1.303774
Ti       5.91700      5.81090     11.10259        -0.861035      0.586850      0.290810
Ti       5.77979      9.65789      2.38095         0.824978     -0.028116      0.094536
Ti       5.81382      9.78405     15.61520         0.225837     -0.878604      0.270941
Ti       5.76817      9.73317      6.81487         0.885716     -0.560788      0.368087
Ti       5.81117      9.76182     11.22220         0.343279     -0.284055      0.275831
Ti       9.77706      1.96749      2.41319        -0.305646     -1.200449      0.422521
Ti       9.71410      1.83812     15.65150         0.529224      1.028598      0.585592
Ti       9.69314     13.64232      2.34858         0.146394      0.043443      1.219337
Ti       9.80841     13.67762     15.60121        -0.551544     -0.723611     -0.545766
Ti       9.66933      2.00759      6.77242         0.196631     -0.083491      2.180863
Ti       9.74051     13.71526      6.82254         0.223592      0.134054     -1.086584
Ti       9.74260      1.89111     11.14385         0.890734      0.554950     -1.531826
Ti       9.71045     13.61547     11.16583         0.561224      0.398999      0.128950
Ti       9.76525      5.78928      2.36291        -0.532201      0.247918      0.841103
Ti       9.73822      5.77112     15.61521        -0.130811      0.289165     -0.092192
Ti       9.68834      5.84989      6.85177        -0.123295     -0.675759     -0.881459
Ti       9.71612      5.72062     11.16795         0.373418      0.749622     -0.013867
Ti       9.67418      9.68376      2.37089         0.189410      0.052914      0.367918
Ti       9.76183      9.71899     15.61918        -0.504047     -0.495542      1.041983
Ti       9.72831      9.78878      6.85264         0.396611     -0.173604     -0.460630
Ti       9.71157      9.72884     11.31531         0.992784     -0.842373     -1.463568
O       2.10954      1.91404      0.69445         0.004093     -0.081095      0.085194
O       2.03095      2.00861     13.85004        -0.013846     -0.015464      0.988781
O       2.00354     13.67795      0.56051         0.037301     -0.196105     -0.544532
O       2.22957     13.60652     13.81604        -0.630253     -0.289746      0.358730
O      13.71265      1.88570      0.54258        -0.217963      0.283353      0.218858
O      13.74333      1.81689     14.07292        -0.201568      0.023288     -1.997232
O      13.86581     13.61055      0.62454        -0.785999     -0.400065      0.183496
O      13.78772     13.67138     13.83745        -0.371484      0.179148     -0.642032
O       1.87376      1.88560      5.00924         0.387287      0.373362     -0.640429
O       1.92576     13.82334      5.13246         0.084594     -0.330434     -0.853456
O      13.64800      2.15326      5.10266        -0.212780     -0.461388     -1.173828
O      13.59770     13.80480      5.05541        -0.034569     -0.565804      0.040900
O       1.95443      1.86878      9.44369         0.005145      0.133259     -0.811971
O       2.03905     13.58756      9.44171        -0.256569      0.256315     -0.773707
O      13.63167      1.92961      9.45077         0.147496      0.050285      0.692813
O      13.53460     13.61309      9.42050         0.337235     -0.098555     -0.008046
O       1.97455      5.74244      0.52022         0.119978      0.433249     -0.158305
O       2.01410      5.68276     13.82964        -0.119055      0.331349     -1.130261
O      13.48232      5.82145      0.57848         0.360261     -0.022869      0.603940
O      13.63375      5.74830     13.89026         0.093154      0.034697     -0.083869
O       1.82762      5.78657      5.10905        -0.035173     -0.194520     -0.648516
O      13.74202      5.82480      5.13628        -0.023064     -0.172240     -0.970873
O       2.02474      5.74610      9.48139        -0.116974      0.353534     -1.774353
O      13.78162      5.87272      9.47379        -0.442583     -0.153980      0.238910
O       1.88629      9.63367      0.68610         0.333752      0.131464     -0.709733
O       1.91404      9.83447     13.79763         0.353541     -0.375083      0.337704
O      13.68224      9.79961      0.73956         0.110080     -0.502731      0.591213
O      13.75538      9.82178     13.92545        -0.507149     -0.380815     -0.513327
O       2.20863      9.91144      5.17608        -0.148020     -0.368415     -1.317008
O      13.63485      9.60425      5.02433         0.186724      0.305559     -0.276085
O       1.95994      9.65592      9.53802         0.040285      0.039856     -0.218616
O      13.65022      9.75370      9.49831         0.319191     -0.111056     -0.173071
O       5.77754      1.92051      0.74096         0.209191     -0.162008     -2.368888
O       5.79047      1.91022     13.83849         0.360098      0.354463     -0.105420
O       5.83413     13.62946      0.55923         0.194999     -0.108935     -0.871351
O       5.76311     13.57727     13.88294         0.170353      0.146828      0.086478
O       5.88999      2.08893      5.09073         0.153716     -0.791312     -0.882875
O       5.86424     13.63550      5.14066        -0.107179      0.116200     -1.144284
O       5.89445      1.85617      9.43763        -0.203265      0.158553      0.547613
O       5.97002     13.61084      9.49538        -0.506495      0.396613     -0.971939
O       5.84274      5.72875      0.61168        -0.103781      0.305215     -0.311940
O       5.95039      5.78932     13.94302        -0.017110     -0.181501     -3.318928
O       5.78677      5.86463      4.95708        -0.034876     -0.242326     -1.376623
O       5.92419      5.96288      9.34888        -0.102435     -0.556341      0.039747
O       5.89671      9.63139      0.64102        -0.404083      0.160472     -0.237181
O       5.77039      9.61316     13.90139         0.291553      0.320486     -1.003830
O       5.70971      9.67059      5.07245         0.023416      0.480872     -0.176438
O       5.91555      9.66194      9.50560        -0.122233      0.183372     -0.377541
O       9.81894      1.84362      0.69036        -0.391055      0.315295     -0.766390
O       9.75901      1.83834     13.92769        -0.223115      0.099806     -0.685499
O       9.69195     13.66898      0.63120         0.160764      0.015266     -0.841704
O       9.84319     13.69611     13.82520        -0.300931     -0.076649      0.547829
O       9.70085      2.05624      5.07536        -0.163466     -0.032564     -1.687040
O       9.73002     13.70436      5.05368         0.211062      0.023238      0.563597
O       9.82077      1.89759      9.34724        -0.117136      0.097605      1.562551
O       9.86033     13.68600      9.42728        -0.446761     -0.312810     -0.080362
O       9.78849      5.78625      0.62678         0.028805      0.107216     -0.718131
O       9.68839      5.70920     13.85054         0.057540     -0.302300     -0.041288
O       9.79847      5.81587      5.09915        -0.387252      0.301628     -0.151641
O       9.66636      5.80194      9.43203         0.164476     -0.057947     -0.043281
O       9.70144      9.56347      0.65515         0.092092      0.155753     -1.010043
O       9.81062      9.67138     13.91802         0.081779      0.431911     -1.594454
O       9.56301      9.73335      5.11112         0.438325     -0.100520      0.102836
O       9.83489      9.56612      9.54727        -0.474498      0.650467      0.445793
O       3.92188      1.92272      2.90584         0.257404     -0.423889      0.241135
O       3.89374      1.94701     16.03125         0.511048      0.303501      0.170432
O       3.91719     13.62355      2.73355        -0.056126     -0.106114     -0.010720
O       3.91654     13.52424     16.14814         0.248011      0.400128     -0.331938
O       0.02900      1.98191      2.81612        -0.508067     -0.058595     -0.030786
O       0.08508      1.89667     16.05410        -0.621878     -0.442719      0.227476
O      15.59780     13.58610      2.78920         0.089499      0.100585      0.264632
O       0.01585     13.69603     16.05307         0.519541     -0.216026     -0.748808
O       3.86611      1.93184      7.01866         0.481792     -0.409737      0.899705
O       3.86055     13.59924      7.25664         0.601486      0.432337      0.153592
O       0.05836      1.82850      7.03489        -0.847123      0.372831      0.963182
O      15.55504     13.65103      7.24781        -0.016153     -0.116882      0.044693
O       3.92202      2.00051     11.63368         0.472292     -0.237564     -0.121897
O       3.88294     13.73970     11.58836         0.323489     -0.573552     -0.333047
O      15.59045      1.85783     11.71139        -0.022824      0.180345     -0.387374
O      15.57725     13.63721     11.64738         0.620242      0.296054     -0.549765
O       3.87112      5.87404      2.65710         0.462158     -0.488386      0.460821
O       3.85281      5.88217     16.03349         0.559966     -0.525942     -0.347164
O       0.00168      5.82477      2.58293        -0.150873     -0.188701      0.544403
O       0.03452      5.85587     16.05498        -0.906608     -0.239113     -0.416498
O       3.81366      5.90211      7.16293         0.799973     -0.293504      0.399403
O      15.57891      5.86052      7.33519         0.128444     -0.392918      0.199437
O       3.99970      5.72297     11.53185        -0.534813      0.803855      0.271087
O       0.00178      5.80242     11.54181         0.211223      0.533589      0.561446
O       3.85346      9.77482      2.88295         0.778869      0.121345     -0.361470
O       3.89420      9.78149     15.92557        -0.139483     -0.332543      0.626818
O       0.07791      9.76298      2.94666        -0.674461     -0.374066     -0.093719
O       0.04175      9.69120     15.95614        -0.056312      0.145500      0.488393
O       3.96248      9.69066      7.41285        -0.633491      0.469589     -0.303225
O       0.02548      9.78254      7.12462         0.207001      0.044526      0.457446
O       3.94023      9.65199     11.60074        -0.424398      0.004101      0.282289
O       0.00735      9.68604     11.67733         0.308743     -0.004535     -0.033299
O       7.76300      1.95004      2.81870         0.307915     -0.224297      0.084034
O       7.78357      1.92011     15.91441        -0.002796     -0.179137      0.617863
O       7.78184     13.67423      2.79898        -0.035519     -0.406069      0.055912
O       7.78450     13.65075     16.01880         0.158627      0.175805     -0.024386
O       7.74416      1.96199      7.31427         0.229987     -0.029122     -0.373933
O       7.82776     13.66807      7.13805        -0.284042     -0.186305      0.619831
O       7.80994      1.90292     11.52804         0.468808      0.349654      0.493152
O       7.82672     13.62658     11.58936        -0.142189      0.148413      0.176062
O       7.81333      5.84602      2.64271        -0.419226      0.232140      0.551450
O       7.75752      5.80327     15.99811         0.707381     -0.241675      0.440684
O       7.72857      5.69891      7.16432        -0.205861      0.444827      0.032387
O       7.83177      5.75206     11.61337         0.207517     -0.063362      0.210324
O       7.77206      9.64694      2.76699        -0.239537     -0.079813      0.440852
O       7.76397      9.70557     16.03232         0.522970      0.265813      0.042406
O       7.71382      9.85408      7.22518         0.756464     -0.354790      0.231226
O       7.81494      9.76025     11.66922        -0.102610     -0.074215      0.187599
O      11.69331      1.89536      2.71843         0.298990      0.366480      0.420848
O      11.68057      1.86911     16.06083        -0.105560      0.236864      0.185882
O      11.70398     13.67643      2.82835        -0.278974     -0.296667     -0.326380
O      11.70566     13.57579     16.03467        -0.224204      0.136690     -0.113104
O      11.68044      1.97000      7.15570        -0.085295      0.301646      0.170352
O      11.69864     13.67422      7.28350         0.130332     -0.097589     -0.230252
O      11.70006      1.85357     11.73521         0.282809      0.646976     -0.518366
O      11.68542     13.66919     11.57476         0.032102     -0.341472      0.280348
O      11.68920      5.87924      2.78435         0.235327     -0.532388      0.162304
O      11.66836      5.76863     16.03337         0.084583      0.063499     -0.128254
O      11.72290      5.93473      7.14444         0.051811     -0.545581      0.717667
O      11.74341      5.73281     11.54825        -0.136226      0.331787      0.282348
O      11.69292      9.65474      2.79356        -0.112650      0.110512      0.316124
O      11.73038      9.73500     16.10436        -0.603288      0.222600     -0.153126
O      11.73229      9.72304      7.09896        -1.128384     -0.598012      0.628112
O      11.76412      9.77999     11.59713        -0.657346     -0.108874      0.870911
O       2.03125      3.88877      2.72421        -0.117667      0.332201      0.457624
O       1.81256      3.89174     16.08591         1.018992     -0.142383     -0.556214
O       1.88897     15.52774      2.77049         0.573667     -0.005976      0.353708
O       2.13350     15.49512     15.91364        -0.341573      0.590779      0.297071
O      13.62636      3.82862      2.71000        -0.159766      0.722698      0.300889
O      13.73045      3.86923     16.11980        -0.467531      0.095902     -0.322690
O      13.70237     15.57386      2.56440        -0.074012      0.237201      0.916974
O      13.60264     15.49653     16.21747        -0.080887      0.702963     -0.794151
O       2.01534      3.91043      7.26575        -0.620752     -0.555890      0.076317
O       1.98077      0.02467      7.21783         0.082193     -0.591772      0.479745
O      13.73682      3.85894      7.23958        -0.352949      0.415952      0.497844
O      13.63996     15.59839      7.16987        -0.214745     -0.242744      0.233187
O       1.95835      3.91159     11.57410        -0.220936     -0.393284      0.178487
O       2.03479      0.03017     11.65563        -0.437775     -0.691351     -0.315329
O      13.77984      3.85110     11.70841        -0.959882     -0.117027     -0.359412
O      13.61966     15.59675     11.62899         0.288549     -0.469949      0.090013
O       2.00438      7.75311      2.82008        -0.279990      0.070866     -0.038309
O       1.90625      7.75119     15.93886         0.443095      0.435686     -0.156578
O      13.68218      7.70367      2.83777         0.020872      0.281219     -0.067710
O      13.63992      7.74649     16.00236        -0.072926     -0.037719      0.167140
O       1.92103      7.77542      7.18738         0.012882      0.620171      0.412206
O      13.77293      7.79092      7.26311        -0.522468      0.038012      0.044437
O       1.94775      7.73772     11.71227         0.395917      0.153141     -0.125750
O      13.61037      7.79695     11.63135         0.314613     -0.542637      0.161807
O       1.89097     11.68589      2.75701         0.546944      0.373407      0.155685
O       2.01662     11.67577     16.12636        -0.497965     -0.130857     -0.666202
O      13.61001     11.65224      2.85111         0.147454      0.026218      0.349485
O      13.73845     11.70066     15.94052        -0.383987      0.170235      0.467148
O       1.93641     11.71278      7.21528         0.221003      0.129779      0.690411
O      13.59572     11.62688      7.18779         0.242090      1.013205      0.155474
O       2.00325     11.66079     11.46909         0.152498      0.516790      0.478129
O      13.70959     11.70972     11.67308        -0.475175      0.172783     -0.274348
O       5.81608      3.86262      2.68942        -0.089471      0.095467      0.737373
O       5.88405      3.86139     16.07698        -0.195117     -0.182624     -0.291165
O       5.92320     15.49512      2.69156        -0.448712      0.342566      0.466413
O       5.82628     15.59943     15.96973        -0.016127     -0.117221      0.421088
O       5.71091      3.88235      7.09047         0.294452      0.029900      0.901925
O       5.88426     15.59380      7.29376        -0.351654     -0.550775     -0.275319
O       5.87566      3.92292     11.48963         0.564721     -0.977503      0.427653
O       5.90709     15.58720     11.61481        -0.096593      0.431562      0.022221
O       5.69990      7.77212      2.77757         0.492363      0.067681      0.090641
O       5.90112      7.77638     16.03574        -0.584699     -0.201754      0.239791
O       5.88766      7.71417      7.06699        -0.089172      1.132632      0.578757
O       5.89256      7.72893     11.59725         0.150418      0.232126      0.414301
O       5.94746     11.64678      2.88903        -0.715907      0.102344     -0.637789
O       5.88082     11.71164     15.99802        -0.073809     -0.415269      0.183905
O       5.81148     11.71717      7.30015         0.018900     -0.078092     -0.151842
O       5.80380     11.73903     11.56106         0.144034     -0.360916      0.360537
O       9.66602      3.87357      2.85132         0.641731     -0.003678     -0.397643
O       9.72323      3.87802     16.16381        -0.061658     -0.547024     -0.445989
O       9.69359     15.58483      2.85963         0.122424      0.159434      0.042381
O       9.73228     15.52861     16.15043        -0.045546      0.491365     -0.442021
O       9.65290      3.93455      7.25317         0.762014     -0.717383      0.293175
O       9.79972      0.06006      7.15714        -0.303361     -0.451481      0.142741
O       9.90822      3.82320     11.52436        -0.847908     -0.026950      0.411978
O       9.74799      0.01723     11.57202        -0.168139     -0.641039      0.201911
O       9.75998      7.75930      2.92088        -0.251080     -0.166139     -0.394474
O       9.69147      7.79754     15.87689         0.375557     -0.737578      0.755626
O       9.63258      7.68622      7.33561         0.169289      1.714741     -0.241070
O       9.81964      7.71713     11.69695        -0.446070      0.241841     -0.076872
O       9.68300     11.64193      2.68303         0.247102      0.036369      0.472598
O       9.66581     11.69475     16.03028         0.597344      0.001700     -0.103095
O       9.84559     11.73934      7.18520        -0.507408     -0.649288      0.423655
O       9.78399     11.68542     11.69220        -0.225499      0.098341     -0.304475
