  # total energy = -7877.61202091 
CRSYTAL
PRIMVEC
    15.2000000000000000    0.0000000000000000    0.0000000000000000
     0.0000000000000000   15.2000000000000000    0.0000000000000000
     0.0000000000000000    0.0000000000000000    17.000000000000000
PRESSURE
7.81929 7.54854 3.46514 -0.088661 -0.070365 -0.023806
PRIMCOORD
320 1
Pb       3.67274      3.94572      4.39302         0.358252     -0.377215     -0.416936
Pb       3.75236      3.84799      0.07020         0.296516     -0.066816     -0.405813
Pb       3.71430      0.10734      4.34115         0.363661      0.111975     -0.748192
Pb       3.98942     15.19174      0.07712        -0.501137     -0.553955     -0.176693
Pb      15.15129      4.03399      4.34398         0.288570     -0.808091     -0.746515
Pb      15.16940      3.80795     16.88213        -0.005444     -0.329280      0.208145
Pb       0.03190      0.13650      4.21572        -0.132922     -0.091088     -0.055791
Pb       0.15118     15.18412     16.87803        -0.673438     -0.088521     -0.115261
Pb       3.86349      3.65422      8.51294        -0.403432      0.154200     -0.705878
Pb       3.79725     15.13903      8.36743         0.021245      0.527948      0.447881
Pb      15.09385      3.75021      8.45027         0.075608      0.090686      0.329736
Pb      15.19066     15.18064      8.68011         0.004444     -0.027003     -0.513000
Pb       3.81786      3.73944     12.72751         0.010553     -0.216193     -0.120449
Pb       3.92859     15.03155     12.73381        -0.347530      0.652081      0.161552
Pb       0.18351      3.57599     12.83217        -0.921560      0.442748      0.196667
Pb       0.04577     15.00541     12.66283        -0.293345      0.189228      0.998833
Pb       3.68124      7.69804      4.36447         0.007892     -0.185293     -0.751623
Pb       3.84515      7.73273      0.22822        -0.060960     -0.294652     -0.028998
Pb      15.13393      7.70245      4.21034         0.221521      0.156091     -0.246316
Pb       0.14614      7.63046     16.99400        -0.227970      0.121981     -0.293137
Pb       3.73981      7.48093      8.49630        -0.408248      0.323194     -0.568002
Pb      15.02149      7.58945      8.53386         0.321940      0.085459      0.204438
Pb       3.71794      7.52018     12.75845         0.234763     -0.392288     -0.574568
Pb      15.11954      7.41480     12.77657        -0.008425      0.043341     -0.595091
Pb       3.58426     11.67770      4.34689         0.515075     -1.065815     -0.472905
Pb       3.93340     11.44118     16.95677        -0.269578      0.041961      0.424151
Pb      14.94858     11.60055      4.35783         0.089574     -0.694543     -0.068331
Pb       0.04556     11.44968     16.86891        -0.198347     -0.162327      0.133064
Pb       3.72211     11.44646      8.39429        -0.237438     -0.558335      0.254229
Pb      15.04660     11.27867      8.65485         0.417116     -0.170643     -0.495903
Pb       3.69248     11.23276     12.76626         0.275737      0.430832     -0.463997
Pb      15.11437     11.31255     12.56710         0.655636     -0.074716      0.887821
Pb       7.65529      3.81954      4.12652        -0.085168     -0.339292      0.201901
Pb       7.67653      3.87408      0.08772        -0.296177     -0.393702     -0.196663
Pb       7.54394      0.02623      4.18457        -0.018467      0.014595     -0.096750
Pb       7.56789     15.12300      0.09244         0.171795      0.299577     -0.642830
Pb       7.78206      3.79421      8.21426        -0.437801     -0.317770      0.566967
Pb       7.50486     15.14689      8.45412         0.160452     -0.023849     -0.527033
Pb       7.46248      3.68649     12.65296         0.475520      0.430655      0.131361
Pb       7.57196      0.10443     12.69181         0.266429     -0.648761      0.212490
Pb       7.62666      7.60333      4.37350        -0.100384     -0.115552     -0.852672
Pb       7.55864      7.53612      0.02468        -0.060369      0.375605      0.168731
Pb       7.61584      7.58852      8.44608         0.215517      0.155881     -0.262052
Pb       7.59817      7.49760     12.72664        -0.386637      0.195766     -0.384865
Pb       7.53457     11.35397      4.12828         0.681949      0.524848      0.523075
Pb       7.59770     11.41874      0.09516         0.150141     -0.169807     -0.100579
Pb       7.45335     11.41923      8.30535         0.989128     -0.181599      0.985238
Pb       7.50600     11.36858     12.70652         0.781434     -0.376809      0.256429
Pb      11.50127      3.88285      4.03441        -0.695569     -0.747730      0.470370
Pb      11.50655      3.85187     16.97213        -0.651826     -0.502511      0.064942
Pb      11.47102      0.03614      4.21470        -0.129510     -0.407760     -0.773240
Pb      11.36881     15.12352     16.93611         0.152165     -0.117940      0.003703
Pb      11.39155      3.65323      8.39755         0.217551      0.295268      0.653803
Pb      11.20759     15.09854      8.71658         0.702466      0.229772     -0.414426
Pb      11.40384      3.72913     12.70318        -0.089976      0.250360      0.261582
Pb      11.26490      0.07421     12.88165         0.919533     -0.264169     -0.182334
Pb      11.52111      7.55535      4.11653        -0.634059      0.930366     -0.028166
Pb      11.38742      7.61681     16.96014        -0.172515      0.119669      0.193856
Pb      11.40254      7.60932      8.40827         0.053315      0.141796      0.276434
Pb      11.28516      7.48399     12.67903         0.472996     -0.344598     -0.027383
Pb      11.45109     11.53445      4.18724         0.046709     -0.458044      0.025077
Pb      11.46312     11.23806     16.95990        -0.179900      0.746039     -0.396716
Pb      11.19844     11.45531      8.64226         0.386107     -0.347032     -0.379289
Pb      11.27698     11.09509     12.93237        -0.063392      1.021782     -0.256925
Ti       1.86410      1.92526      2.13601        -0.226381     -0.171041      0.478284
Ti       1.98734      1.84948     15.01182        -0.777810     -0.539302     -0.118719
Ti       1.77961     13.33554      2.22523         1.325751     -0.279833     -0.593330
Ti       2.01664     13.27793     14.95793        -0.339647     -0.294161      0.671036
Ti      13.33365      1.81611      2.07143        -0.332149      0.598016     -0.025558
Ti      13.28544      1.83627     15.04573         0.662904     -0.536485     -1.460920
Ti      13.37986     13.32077      2.03610        -1.483973     -0.482324      0.334424
Ti      13.32557     13.23824     14.87534        -0.322883     -0.203198     -0.294005
Ti       1.85058      1.90662      6.46341        -0.192088      0.414083      0.207601
Ti       1.84735     13.30906      6.51191        -0.468139     -0.150345      1.352970
Ti      13.27196      1.82995      6.34429         0.588473      0.509281      0.870296
Ti      13.33735     13.30777      6.75675        -0.743612     -0.294363     -0.431649
Ti       1.94178      1.77678     10.76964         1.298158      0.377443     -0.655173
Ti       1.96520     13.23144     10.68426        -0.119375     -0.194886     -0.629446
Ti      13.34934      1.84415     10.88043        -1.416298      0.237492      0.134901
Ti      13.24929     13.20783     10.82569        -0.862755      0.832279      0.216827
Ti       1.87801      5.65905      2.20448         0.420858      1.048919      0.297910
Ti       1.87282      5.67680     15.03167         0.163806      0.002153     -1.057624
Ti      13.31130      5.69697      2.10757         0.264749      0.161298     -0.056018
Ti      13.19536      5.70703     14.98913         0.377673     -0.085020     -1.518883
Ti       1.78918      5.69539      6.61613         0.521152     -0.327853      0.335420
Ti      13.20435      5.67867      6.40051         0.838943      0.439968      0.741058
Ti       1.84791      5.57440     10.68672        -0.261077      1.286521      0.007923
Ti      13.25042      5.57599     10.69541        -0.406529      0.296577      1.623324
Ti       1.89664      9.56521      2.18625        -0.131950     -0.862125      0.726686
Ti       1.95727      9.46934     14.89025        -1.375937      0.319951      1.140665
Ti      13.36633      9.51078      2.02886        -1.099369     -0.021256      2.011306
Ti      13.33210      9.39831     14.93356         0.198970      1.484780      0.422478
Ti       1.88535      9.44508      6.53145        -0.930742      0.832850      1.637880
Ti      13.28392      9.51187      6.48075        -0.297270     -0.205527      0.823096
Ti       1.85943      9.36760     10.70434        -0.347931      1.451166     -0.639730
Ti      13.16158      9.43327     10.81288         0.979394     -1.364036     -1.138038
Ti       5.60577      1.94599      2.21159         0.349438     -0.749608      0.979580
Ti       5.67581      1.90826     15.05108         1.216755     -0.451121      0.751716
Ti       5.66104     13.31692      2.36548        -0.202876      0.317353      0.432550
Ti       5.84959     13.25233     14.90272        -1.630578      0.275878      0.664940
Ti       5.70751      1.93808      6.42619         0.536854     -0.674181     -1.215088
Ti       5.69920     13.27498      6.43439         0.153418      1.015579     -0.346045
Ti       5.71173      1.83051     10.60098        -1.044065     -0.528649     -0.349748
Ti       5.72193     13.20476     10.72677         0.536793      0.249986     -0.891013
Ti       5.70387      5.73533      2.34072        -0.341745      0.125460      1.171748
Ti       5.64525      5.68933     15.09906        -0.118970     -0.484190     -0.382224
Ti       5.71747      5.74684      6.38352        -0.943168     -1.145677      0.267532
Ti       5.64588      5.59212     10.55459         0.625704      0.334668      1.489892
Ti       5.65888      9.58416      2.40242        -0.517564     -1.147202     -0.775129
Ti       5.64362      9.42706     14.94975         0.480498      0.907431      0.494397
Ti       5.70467      9.51711      6.40829        -0.365388     -0.792904     -0.701958
Ti       5.60688      9.40350     10.57908         0.893771      0.504634      2.039619
Ti       9.44389      1.86978      2.16501         0.926158     -0.004576      0.587441
Ti       9.49318      1.85604     15.04534        -1.339230     -0.048536      0.836776
Ti       9.57140     13.28739      2.25316        -0.254385      1.008774     -0.221990
Ti       9.51713     13.24620     14.99146         0.381254     -0.107006     -0.776789
Ti       9.61037      1.81688      6.28906        -1.685138      0.124038      1.704321
Ti       9.58837     13.27976      6.45619        -0.115735     -0.631259     -1.016644
Ti       9.46798      1.89163     10.67154         1.141732      0.064605      1.148705
Ti       9.49164     13.27868     10.81317         0.052015      0.032611      1.268324
Ti       9.53378      5.71620      2.16982        -0.624723      0.147913      1.231534
Ti       9.43012      5.63457     14.92601         0.196194     -0.055137      1.072502
Ti       9.54874      5.70034      6.36839        -0.229227     -0.210830     -1.023370
Ti       9.39781      5.70561     10.66277         1.027624     -1.694630      0.208447
Ti       9.55786      9.55184      2.20658        -0.060372     -0.632731     -0.258104
Ti       9.39624      9.42865     15.04087         0.433088      0.716658     -0.739166
Ti       9.49332      9.47900      6.37145         0.220808      0.632636      0.116920
Ti       9.36250      9.47711     10.66850        -0.279017      0.375278      0.799843
O       1.84700      1.73824      0.35783         0.513677      0.827420      0.139613
O       2.01272      1.84606     13.21318        -0.070638      0.314694     -0.329276
O       1.71663     13.23552      0.43580         0.547169      0.405447      0.654589
O       2.01612     13.38839     13.21286         0.023569     -0.662678     -0.845172
O      13.44393      1.85377      0.27899        -0.571632      0.103489     -0.210074
O      13.32124      1.91845     13.20918        -0.143087     -0.403273      0.547706
O      13.38351     13.23376      0.30623        -0.117724      0.147870     -0.118975
O      13.16511     13.22853     13.03968         0.998505     -0.462538      0.816849
O       1.81162      1.88732      4.65931        -0.147314      0.200669      0.430552
O       1.87712     13.29545      4.73533        -0.522140     -0.116480     -0.631489
O      13.42926      1.83838      4.57070        -0.342694      0.159915      0.427312
O      13.15870     13.09240      4.96265         0.541589      0.809847     -0.371252
O       1.87740      1.91828      8.95048         0.044656     -0.354720      0.690090
O       1.80660     13.39579      8.86578         0.940433     -0.237625      0.942015
O      13.12883      2.00613      9.11718         0.664246     -0.383099     -0.037275
O      13.28470     13.09555      9.00071         0.177760      0.669018     -0.164424
O       1.88656      5.58664      0.44343         0.183881      0.422608     -0.900850
O       1.78956      5.60270     13.19428         0.498351      0.573570      0.848910
O      13.20494      5.68276      0.30983         0.215480      0.019606      0.146119
O      13.08766      5.76232     13.13765         0.685435      0.088752      1.479986
O       1.85562      5.53157      4.82277        -0.633431      0.663950     -0.768105
O      13.31883      5.75591      4.59143        -0.179558     -0.263924      0.186127
O       1.84049      5.60190      8.89211         0.511154      0.061385      0.323225
O      13.17303      5.59509      8.98340         0.060646     -0.139970     -1.868701
O       1.93424      9.42603      0.40382        -0.054739     -0.059308      0.097826
O       1.93168      9.33747     13.13344         0.183510      0.479936     -0.344739
O      13.34489      9.34872      0.31131         0.105270      0.231522     -0.808499
O      13.28577      9.35190     13.12703        -0.287539      0.374897     -0.524466
O       1.77366      9.39900      4.79728         0.155892      0.123848     -1.113875
O      13.26462      9.30932      4.72235         0.365651      0.637222     -0.147995
O       1.87340      9.47067      8.90764         0.276945     -0.125986      0.623261
O      13.24405      9.35153      8.95381        -0.196224      0.533604      1.018284
O       5.54988      1.74688      0.43612         0.521078      0.698535     -0.457613
O       5.61022      1.89754     13.30093         0.136303      0.098096     -1.264348
O       5.65265     13.22590      0.61166         0.143786     -0.158500     -1.170618
O       5.71484     13.26525     13.13224         0.262001     -0.071266     -0.625156
O       5.68694      1.80794      4.60722        -0.078311      0.100438      0.740164
O       5.69398     13.33537      4.65664        -0.334631     -0.076692      0.256030
O       5.61673      1.84380      8.81684         0.348460      0.002111     -0.362391
O       5.72275     13.27767      8.86045        -0.097753      0.053987      0.728061
O       5.68088      5.74143      0.58068        -0.017952     -0.066512     -1.064001
O       5.72885      5.71063     13.32571        -0.247410     -0.133277     -0.111105
O       5.64020      5.74733      4.61777         0.273667     -0.363415      0.120879
O       5.68453      5.66022      8.81422        -0.114964     -0.097608     -0.646833
O       5.46036      9.50446      0.55547         0.476345      0.062588      0.231402
O       5.56432      9.50768     13.18437         0.297389     -0.478726      0.225600
O       5.70975      9.41632      4.57821         0.282294      0.288639      1.021373
O       5.73043      9.55712      8.85360        -0.285490     -0.410876     -0.841867
O       9.46080      1.82897      0.40384        -0.343520      0.153051     -0.296514
O       9.59657      1.82002     13.29763        -0.822596      0.084189     -1.054856
O       9.59937     13.21803      0.45661        -0.505052      0.236173      0.325903
O       9.43127     13.19508     13.17285         0.399722      0.268962      0.473332
O       9.49504      1.72081      4.57084         0.322822      0.471415     -0.571786
O       9.77788     13.44916      4.62565        -0.541607     -0.650483      1.569279
O       9.64255      1.87597      8.91062        -0.444912     -0.213285     -0.212841
O       9.56433     13.29316      9.05639        -0.372688      0.276232     -1.526423
O       9.52809      5.63734      0.41720        -0.413801     -0.020566     -0.765132
O       9.43576      5.66206     13.17279        -0.293573      0.080585     -0.249915
O       9.58002      5.57089      4.55469        -0.079327      0.746824      1.248606
O       9.31948      5.72472      8.89154         0.246784     -0.038055     -0.757299
O       9.52800      9.56871      0.37320        -0.244123     -0.161422      0.748136
O       9.39007      9.51039     13.18166         0.498448     -0.257909      0.876955
O       9.41067      9.45249      4.59276        -0.013095      0.065921     -0.610599
O       9.40263      9.41256      8.90422         0.013838     -0.205650      0.273116
O       3.74382      1.88524      2.61133        -0.687775     -0.033638     -0.165719
O       3.81937      1.87608     15.36583        -0.499181      0.504092      0.464461
O       3.72328     13.34268      2.75219        -0.669018      0.023931     -0.411916
O       3.92217     13.14501     15.35412        -1.334529     -0.034924     -0.384150
O      15.18570      1.84485      2.43897         0.317205      0.383084      0.490289
O       0.01040      1.76670     15.24460         0.339872      0.348987      0.088440
O      15.13894     13.28511      2.72294         0.560825     -0.426434      0.000973
O      15.18687     13.32431     15.33085         0.684886     -0.255018     -0.634506
O       3.78057      1.92473      6.76334        -0.698825     -0.272071      0.085260
O       3.76337     13.38393      6.83954         0.346303     -0.518113     -0.349719
O      15.11906      2.02220      6.90643        -0.316486     -0.719340     -0.489281
O       0.03078     13.21451      6.99900        -1.053713      0.454159     -0.338795
O       3.84689      1.95206     11.05089        -1.064330     -0.013637      0.131762
O       3.89082     13.18999     11.06928        -0.370882     -0.605218     -0.075964
O       0.11639      1.65455     11.18976        -0.732624      0.787468     -0.405821
O       0.11397     13.35002     10.98071        -1.013741     -0.229830      0.462533
O       3.78368      5.64598      2.71047         0.067357      0.136307     -0.379868
O       3.75419      5.62512     15.36812         0.192897     -0.379852      0.129480
O      15.18231      5.72236      2.43309        -0.553555      0.001300      0.542028
O      15.16286      5.68255     15.28662        -0.348401      0.570029      0.176332
O       3.69336      5.65466      6.76573         1.372145      0.366011      0.361779
O      15.04263      5.65487      6.94224         0.530832     -0.205131     -0.563774
O       3.79149      5.60561     11.13342         0.154017      0.298986     -0.526495
O      15.17295      5.67883     10.98317        -0.036365      0.319656      0.338786
O       3.73947      9.40831      2.68015         0.031971      0.185991      0.014055
O       3.80042      9.77048     15.21053        -0.233285     -0.717798      0.199077
O      15.11591      9.45237      2.61244         1.717655     -0.044363     -0.248083
O      15.18155      9.29004     15.30328         0.838484      0.249786     -0.229482
O       3.77400      9.47564      6.84832         0.754923     -0.418182     -0.128057
O      15.17980      9.49851      6.97488        -0.098001     -0.126368     -0.499855
O       3.77219      9.56001     11.04370         0.555391     -0.269144     -0.089931
O       0.00131      9.45222     11.13997        -0.936069     -0.382939     -0.260584
O       7.54792      1.87913      2.53113         0.467718      0.057927     -0.106359
O       7.55500      1.69818     15.18999         0.124828      0.110262      0.799437
O       7.57518     13.24590      2.59469         0.726497      0.352178      0.080678
O       7.63693     13.29702     15.27297        -0.005447      0.291551      0.785838
O       7.66202      1.93053      6.71699         0.017586     -0.376022      0.135542
O       7.54671     13.21425      6.78717         0.948856      0.393031     -0.168372
O       7.55760      1.76563     10.95752         0.623098     -0.101770      0.392695
O       7.64709     13.49361     11.05413        -1.394691     -0.137557      0.155731
O       7.62434      5.67287      2.67226         0.259294     -0.345634     -0.413193
O       7.56286      5.78678     15.35510         0.275932      0.261235      0.508925
O       7.62310      5.60451      6.68971        -0.402338      0.048496     -0.133838
O       7.55900      5.53091     11.04358        -1.601717      0.668745      0.264486
O       7.55866      9.74930      2.40773         1.090896     -0.785548      0.255840
O       7.54401      9.36147     15.26049        -0.082359     -0.288503      0.473318
O       7.61654      9.55721      6.84457        -1.343648     -0.196008     -0.467095
O       7.54167      9.40640     11.17813         0.048456     -0.601888     -0.579557
O      11.48968      1.76989      2.32501        -1.211742      0.314944      0.679023
O      11.34298      1.78388     15.26866         1.234131      0.422969      0.689577
O      11.48264     13.32409      2.55207        -0.031496      0.063549     -0.015252
O      11.38986     13.24424     15.31289         0.199540     -0.443318      0.007576
O      11.38623      1.77994      6.70550         0.625630      0.128575      0.048449
O      11.40767     13.21405      7.09116        -0.302524      0.356488     -0.423641
O      11.36749      1.96192     11.22640         0.390209     -0.580620     -0.527753
O      11.40683     13.22111     11.06588         0.069668     -0.316680     -0.180871
O      11.39775      5.66652      2.48156         0.659041      0.322318      0.223037
O      11.31758      5.51628     15.28308         0.372644      0.336464      0.138899
O      11.37136      5.76855      6.77901        -0.183450      0.470240      0.069742
O      11.28317      5.62123     10.95665        -0.008619     -0.620680      0.467195
O      11.44010      9.50532      2.47670        -0.690799      0.109296     -0.035236
O      11.45157      9.48182     15.41404        -1.228310      0.577959     -0.703609
O      11.30832      9.43971      6.72660         1.220245     -0.314733      0.401858
O      11.32088      9.54181     11.10486        -0.619950     -0.120517     -0.016839
O       1.78808      3.82596      2.54625         0.326709     -1.062881      0.287357
O       1.81438      3.76242     15.38064         0.393879     -0.138040     -0.103586
O       1.75272      0.01095      2.61764         0.612761     -0.174672     -0.230328
O       1.99413     15.13406     15.28602         0.028570      0.226249      0.353271
O      13.18140      3.81025      2.51283         1.093913     -0.025077     -0.558309
O      13.31160      3.75897     15.28164        -0.106662      0.362542      0.260718
O      13.33025     15.15176      2.45261         0.375714     -0.066220      0.266977
O      13.28015     15.04948     15.16890        -0.329803      1.735764      0.467533
O       1.76799      3.79716      6.83025         0.358609     -0.577691      0.247562
O       1.77564      0.03162      6.76361         0.089514     -0.004835      0.321351
O      13.09598      3.81086      6.78447         0.541251     -0.705187     -0.475297
O      13.26079      0.03794      6.92215         0.512677     -0.616455     -0.042350
O       1.83116      3.82068     11.16823         0.307112     -1.968577     -0.289549
O       2.16355     15.09724     11.06296        -0.621642      0.798415     -0.112193
O      13.31700      3.73240     11.27717         0.579271      0.045569     -0.444638
O      13.33549     15.11680     11.12456        -0.239588      0.433435     -0.348580
O       1.96990      7.56471      2.58260        -0.696025      0.113168      0.083107
O       1.97538      7.59777     15.30993         0.232807     -0.251519      0.144995
O      13.22471      7.61014      2.55976         0.381485     -0.542377     -0.476003
O      13.14170      7.63467     15.29740         0.197988     -2.905823      0.088388
O       1.85768      7.57504      6.99367        -0.106378     -0.105197     -0.423087
O      13.35578      7.58476      6.88486        -0.771738     -0.399786     -0.228183
O       1.86651      7.60525     11.07057         0.691817     -2.148708      0.168941
O      13.09895      7.47279     10.95729         0.491784      1.219531      0.642506
O       1.95281     11.37402      2.44603        -0.419147      0.882266      0.756853
O       1.69505     11.36128     15.32038         0.877206     -0.226696     -0.779615
O      13.25899     11.36776      2.54959         0.432426      0.665915     -0.020004
O      13.35662     11.32607     15.37504        -0.112242     -0.005877     -0.651656
O       1.91477     11.42637      6.93198         0.147775     -0.411597     -0.669558
O      13.32493     11.35570      6.89373        -0.116527     -0.438338      0.135421
O       1.84680     11.36396     11.11598         0.334276      0.130228     -0.054155
O      13.36652     11.30132     11.08063        -0.162412      0.255118     -0.079643
O       5.70077      3.73527      2.63658        -0.017613      1.314831     -0.241018
O       5.81781      3.78977     15.53728        -0.519171      0.146829     -0.268032
O       5.63089     15.17538      2.46650         0.207370      0.711933      0.752825
O       5.60596     15.09933     15.41649         0.402060      0.274225     -0.179571
O       5.62054      3.77282      6.69384         0.286012      0.938474      0.360908
O       5.71170      0.01559      6.70507         0.046500     -0.622624      0.689189
O       5.63160      3.65547     10.99472         0.614232      1.984939      0.293507
O       5.60895     15.18789     11.01740         0.186795     -0.663570      0.157230
O       5.88513      7.60840      2.66923        -0.658180      0.169978     -0.364658
O       5.56701      7.58839     15.55329        -0.079330      0.508962     -0.645944
O       5.75576      7.60001      6.61650        -0.097332     -0.161166      0.837944
O       5.65365      7.52344     10.93908        -0.030995     -0.222958      0.016720
O       5.66415     11.42009      2.76282        -0.930221     -0.063548     -0.163368
O       5.85707     11.41121     15.48297        -0.190631     -1.037572     -0.557580
O       5.60660     11.34605      6.69036        -0.122944      0.985970      0.272111
O       5.94405     11.32032     11.06616        -1.199904      0.653508     -0.787703
O       9.61644      3.77836      2.57340        -0.606292     -0.633456     -0.274995
O       9.30095      3.75359     15.44625         0.447293      0.206056     -0.580795
O       9.47626      0.04784      2.66477         0.101447     -1.059166     -0.749179
O       9.48405     15.12487     15.52866         0.035829     -0.009966     -0.617668
O       9.63932      3.76513      6.71832        -0.443585     -0.108857     -0.122815
O       9.53239     15.05634      6.93103        -0.358010      1.554931     -0.184844
O       9.32678      3.69136     11.12509         0.412228      0.448591     -0.236877
O       9.67881      0.00168     11.22462        -0.931415      0.383992     -0.784155
O       9.55413      7.58219      2.40104        -0.536405      1.118487      0.387516
O       9.63181      7.57582     15.35571        -0.630176     -0.652406     -0.240258
O       9.34074      7.60624      6.73368         0.174861     -0.871725      0.030569
O       9.45647      7.50493     11.08095        -0.378708      1.350455     -0.062970
O       9.50496     11.48830      2.62794         0.393424     -1.394171      0.033125
O       9.40710     11.34272     15.33776         0.326396     -0.124000      0.098183
O       9.54118     11.37078      6.86016        -0.308705      0.555124     -0.164910
O       9.34458     11.40331     10.94595         0.167783     -1.250488      0.456751
