  # total energy = -7882.15709350 
CRSYTAL
PRIMVEC
    15.3600000000000000    0.0000000000000000    0.0000000000000000
     0.0000000000000000   15.3600000000000000    0.0000000000000000
     0.0000000000000000    0.0000000000000000    17.440000000000000
PRESSURE
2.25606 2.64046 6.06673 -0.010633 0.163794 0.02989
PRIMCOORD
320 1
Pb       3.85671      3.75487      4.27979        -0.298053      0.034508      0.968388
Pb       3.74321      3.78476     17.41759        -0.142683      0.172173     -0.195264
Pb       3.79025     15.27560      4.31047         0.145827      0.799225      0.719956
Pb       3.71379     15.26020     17.31323         0.649320      0.379754      0.621762
Pb       0.04006      3.74996      4.24651         0.297382      0.414587      0.276466
Pb      15.35412      3.82561     17.35006         0.356772     -0.050683      0.788603
Pb       0.01014     15.35669      4.29104         0.311506     -0.149783      0.201506
Pb       0.03627     15.31222     17.36256        -0.220217      0.751411      0.420072
Pb       3.77885      3.77547      8.73586         0.459458      0.596758     -0.144228
Pb       3.84175      0.03508      8.50663         0.069865     -0.477755      1.705846
Pb       0.06240      3.89858      8.71584        -1.031001     -0.022543      0.115840
Pb      15.25315     15.32784      8.70488         0.332896      0.141910      0.136209
Pb       3.80417      3.82806     13.04103        -0.121263     -0.559411     -0.206582
Pb       3.80808      0.09121     12.96549         0.258650     -0.268965      0.320398
Pb       0.03351      3.82409     13.02954         0.080203     -0.010193      0.283960
Pb      15.31201     15.28199     13.06988         0.435221      0.043365     -0.201306
Pb       3.80913      7.64878      4.34737        -0.038848      0.053195     -0.230189
Pb       3.85614      7.58721     17.31780        -0.504771      0.388509      0.617208
Pb      15.31212      7.77049      4.29285         0.386125     -0.508282      0.047604
Pb      15.27436      7.55329     17.41966         0.305418     -0.087305     -0.353115
Pb       3.73816      7.73626      8.62474         0.514700     -0.033877      0.096465
Pb      15.35771      7.70087      8.63662        -0.075639     -0.231826      0.348938
Pb       3.84853      7.61332     12.94363        -0.338836      0.703873      0.505288
Pb      15.28945      7.58700     13.03882         0.084910      0.356615      0.619417
Pb       3.91477     11.52384      4.34398        -0.728910     -0.482691      0.092132
Pb       3.72540     11.62935     17.36641         0.833499     -0.855681      0.443769
Pb      15.23241     11.44776      4.40073         0.234355      0.555304     -0.438357
Pb      15.31116     11.54894     17.36057         0.024583     -0.882769      0.223562
Pb       3.90302     11.47497      8.64913        -0.547291     -0.060110      0.491024
Pb      15.29036     11.54158      8.71087         0.067742      0.355926     -0.196700
Pb       3.80590     11.45240     13.02268        -0.262899      0.247265     -0.453208
Pb       0.04654     11.52056     12.97303         0.133489     -0.034505      0.353506
Pb       7.66872      3.77683      4.26689        -0.226539      0.134995      0.150813
Pb       7.55259      3.76337      0.04301         0.630248      0.324041      0.159392
Pb       7.68386     15.23427      4.38965        -0.339253      0.411027     -0.307227
Pb       7.72061     15.35602     17.41763        -0.317766     -0.418118     -0.178944
Pb       7.65970      3.87600      8.59979        -0.109537     -0.097747      0.195140
Pb       7.63867      0.04968      8.70214         0.111363     -0.036063      0.127322
Pb       7.73758      3.88189     12.93652        -0.204207     -0.967388      0.665649
Pb       7.59479      0.03585     12.99405         0.153031      0.502509     -0.080033
Pb       7.76048      7.65935      4.35358        -0.660909     -0.046122     -0.115685
Pb       7.55884      7.75291     17.36712        -0.134719     -0.400516      0.133175
Pb       7.76122      7.58044      8.67015        -0.537754      0.380935      0.485903
Pb       7.71511      7.72593     13.03163        -0.228398     -0.064687      0.124043
Pb       7.65720     11.50502      4.32303         0.318352     -0.309222      0.259993
Pb       7.66101     11.44062     17.38988        -0.857290      0.415749      0.234439
Pb       7.62733     11.59295      8.62211         0.440035     -0.294242      0.892327
Pb       7.60560     11.45569     12.94209         0.026314      0.427295      0.154225
Pb      11.43078      3.85733      4.24499         0.457143     -0.411070      0.506683
Pb      11.57713      3.82501     17.42126        -0.029571      0.033326      0.528071
Pb      11.54980     15.23728      4.40305         0.046274      0.645737     -0.293502
Pb      11.42076     15.31800      0.09684         0.249748      0.344547     -0.615376
Pb      11.40755      3.78103      8.64262         0.789084      0.572901     -0.266330
Pb      11.50175      0.08053      8.69826         0.087410     -0.273276     -0.064514
Pb      11.57001      3.77067     13.01778        -0.163625      0.053018      0.646920
Pb      11.56648      0.00409     13.01173        -0.424060     -0.056252      0.041254
Pb      11.47298      7.60603      4.29959        -0.000020      0.535954      0.317653
Pb      11.52097      7.71893     17.37706        -0.156525     -0.879472      0.177884
Pb      11.53170      7.71328      8.64340        -0.279826     -0.765739      0.435494
Pb      11.49428      7.58847     13.11407         0.570825      0.051487      0.406527
Pb      11.51998     11.54550      4.20422        -0.081119     -0.513451      1.247698
Pb      11.44359     11.46057     17.39130         0.099496      0.286131      0.190537
Pb      11.58169     11.50210      8.54827        -0.212387      0.488355      0.791234
Pb      11.56865     11.51269     13.06322        -0.286264      0.003378     -0.183661
Ti       2.00379      1.85781      2.31586        -0.531612      0.431823      0.189505
Ti       1.91187      1.89252     15.39697         0.024017      0.625193      1.185672
Ti       1.95081     13.38375      2.32097        -1.126624      0.497347      3.072686
Ti       1.86893     13.39326     15.39974         0.398125      0.041142     -0.772692
Ti      13.47720      1.93614      2.38193        -0.136563     -0.204239      1.343604
Ti      13.46048      1.83853     15.35956         0.204451      1.331930      1.937596
Ti      13.46707     13.48212      2.29188         0.383599      0.084109      2.162343
Ti      13.34749     13.44649     15.48640        -0.012810     -0.333550      0.466274
Ti       1.89006      1.97346      6.81652        -0.292111     -0.586742     -0.848196
Ti       1.88898     13.46573      6.73295        -0.697644      0.272073      1.177813
Ti      13.46424      1.92122      6.62424        -0.958829      0.505011      3.804025
Ti      13.36413     13.47511      6.70569         0.635906     -0.096554      0.688939
Ti       1.89767      1.82894     10.99176         0.211938      0.830300      1.720255
Ti       1.92538     13.43028     10.98364        -0.302101      0.272912     -0.336877
Ti      13.54976      1.89693     11.01286        -1.618293      0.284394      0.587737
Ti      13.39077     13.41333     11.05515         0.366109      0.254850      0.258085
Ti       1.91378      5.72448      2.36765        -0.118040      0.021323     -0.096300
Ti       1.97721      5.75981     15.35411        -1.182652     -0.479584      0.879400
Ti      13.40247      5.81363      2.44906         0.601149     -1.365021     -0.421175
Ti      13.36812      5.68355     15.44772         0.603507     -0.536886      1.410582
Ti       1.88092      5.81587      6.78433         0.710329     -0.435922      0.394488
Ti      13.44576      5.75513      6.59682        -1.074106     -1.141187      1.612169
Ti       1.93993      5.76951     11.07027        -2.105880     -0.288759      0.103309
Ti      13.45453      5.70868     11.09946        -0.614275      0.066074      0.513022
Ti       1.92583      9.59672      2.28882        -0.435365     -0.128625      1.029743
Ti       1.85739      9.55626     15.35560        -0.499120     -0.413140     -0.165045
Ti      13.37961      9.67157      2.27741        -0.192434     -0.672611      2.812317
Ti      13.36556      9.58043     15.44096         0.783957     -0.465150      0.087164
Ti       1.85850      9.69048      6.60631         0.760851     -0.977813      1.274294
Ti      13.42984      9.54542      6.70628        -0.351073      0.656889      0.204149
Ti       1.85719      9.54334     11.01752         0.223493      0.794793      2.872212
Ti      13.45152      9.57341     11.10212        -0.769227     -0.332758      0.757617
Ti       5.78062      1.89961      2.32971        -0.027154     -0.738386      1.256450
Ti       5.79217      1.86597     15.53739        -0.501702     -0.408597     -1.857493
Ti       5.69541     13.40936      2.42112         1.055197     -0.152019     -1.207800
Ti       5.82050     13.39170     15.34300        -0.723954      0.275520      3.370991
Ti       5.79594      1.92363      6.68135        -0.605406      0.502165      0.103189
Ti       5.71514     13.38974      6.71933         0.079289      0.906181      1.335710
Ti       5.74275      2.00541     10.93144         0.326885     -0.977086      1.648412
Ti       5.69909     13.47669     11.03308        -0.126733     -0.521788      1.048808
Ti       5.67570      5.73995      2.32877         0.385859      0.530134      2.279862
Ti       5.75287      5.65548     15.32211        -0.781566      0.810767      1.751726
Ti       5.71169      5.75495      6.64241        -0.514191      0.123267      1.328479
Ti       5.74380      5.77520     11.05945         0.110324     -0.373365      0.665532
Ti       5.74942      9.60440      2.39891        -1.093423     -0.755599     -0.036998
Ti       5.61700      9.60080     15.38775         0.291491     -0.304702      1.196487
Ti       5.79003      9.55102      6.65883        -0.548403     -0.295704      1.986380
Ti       5.73855      9.54947     11.01429        -1.085432      0.935012      0.591044
Ti       9.63290      1.80010      2.30777         0.449680      0.571899      1.338453
Ti       9.65170      1.99590     15.50984        -0.027427     -1.098714      1.038761
Ti       9.58907     13.38730      2.38152        -0.698445     -0.303249      1.688979
Ti       9.58830     13.38189     15.33176         0.279210      0.992979      0.411073
Ti       9.58784      1.92582      6.60350         0.582776      0.243097      0.727159
Ti       9.54395     13.48286      6.73427         0.876722     -0.373473      1.115722
Ti       9.66757      1.87953     10.98416        -0.969374     -0.090521      2.722484
Ti       9.51233     13.46204     11.05230         0.738334      0.301305      0.793043
Ti       9.53229      5.71886      2.31609         0.283539     -0.134670     -1.217382
Ti       9.47735      5.74920     15.53124         1.008650     -0.746295      1.640100
Ti       9.52597      5.77638      6.69370         1.642755     -0.201963      1.272882
Ti       9.58347      5.73845     11.14424         1.908352     -0.442038     -1.564408
Ti       9.54093      9.53739      2.25779         0.390197      0.007654      3.983134
Ti       9.53932      9.58055     15.39805         0.044577     -0.725361      0.367162
Ti       9.52000      9.62235      6.78392         0.746034      0.066108      1.046526
Ti       9.60356      9.58891     11.09618         0.440108      0.257370      0.894213
O       2.01341      1.74085      0.57882        -0.137269      0.406585     -0.450916
O       1.85536      1.90631     13.69499         0.271007     -0.014070     -1.785026
O       1.97294     13.41309      0.64732        -0.155566     -0.108802     -3.071223
O       1.93195     13.39101     13.65874        -0.242995     -0.056473      0.290932
O      13.68819      1.90521      0.72252        -0.467495     -0.329479     -2.138642
O      13.44001      1.93671     13.64286         0.193251     -0.246701     -0.595325
O      13.40461     13.44885      0.59845        -0.041836      0.049513     -1.522199
O      13.27955     13.42224     13.76143         0.150546      0.126773     -0.978572
O       1.93085      2.00006      5.05958        -0.053281     -0.173502     -0.097068
O       1.84538     13.48051      5.00633         0.134800      0.010982     -0.261983
O      13.35064      1.85359      4.96298         0.245142      0.075366     -2.619665
O      13.49360     13.37113      4.99485        -0.094924      0.415440     -1.527125
O       1.97630      1.85702      9.29660        -0.392886      0.211296     -1.311633
O       1.96320     13.56640      9.22069        -0.288344     -0.568924      0.323514
O      13.45171      1.80575      9.27811        -0.122513      0.359858      0.241636
O      13.43433     13.41599      9.33481         0.073395      0.052622     -0.948342
O       1.85350      5.67323      0.62432         0.474067      0.418094     -0.418314
O       1.98523      5.70032     13.61645         0.117978      0.145846     -0.910573
O      13.45884      5.72291      0.69903        -0.034741      0.201383     -0.640286
O      13.39922      5.62731     13.75310         0.083745     -0.044483     -1.398545
O       1.90796      5.73545      5.09304         0.028827     -0.031649     -1.376137
O      13.41882      5.76085      4.87994         0.133909      0.007255     -1.130466
O       1.78576      5.87556      9.33448         0.168460     -0.083207     -0.880330
O      13.49233      5.68875      9.38450        -0.152400      0.351653     -0.574850
O       1.76195      9.52022      0.57113         0.464820      0.202196     -0.022008
O       1.78588      9.56455     13.58175         0.378831      0.288590      0.804274
O      13.29898      9.57973      0.61719         0.067369     -0.043473     -3.074313
O      13.39095      9.47625     13.72916        -0.028793      0.568812     -0.827599
O       1.81371      9.44314      4.90962        -0.063118      0.818048     -1.027664
O      13.50594      9.67444      4.98201        -0.233425     -0.291535     -0.470621
O       1.94919      9.51039      9.34871        -0.399000      0.135474     -2.800068
O      13.42025      9.69619      9.36493         0.178891     -0.390880     -0.646427
O       5.87220      1.83954      0.60686        -0.449659      0.172482     -1.236354
O       5.72149      1.85350     13.71337         0.268425     -0.098509      1.401712
O       5.73271     13.22966      0.67588        -0.101913      0.543621      0.081503
O       5.61361     13.50281     13.69738         0.205168     -0.031204     -2.739458
O       5.74736      1.90715      4.92923         0.248466     -0.009048      0.286712
O       5.75119     13.40790      5.00874        -0.072409     -0.250181     -1.315015
O       5.88887      1.96026      9.22031        -0.275394      0.310967     -0.852502
O       5.77220     13.42849      9.33767         0.061707     -0.155909     -1.758281
O       5.58478      5.61560      0.64380         0.208747      0.291199     -1.585309
O       5.79862      5.80314     13.61320        -0.151930     -0.228411     -1.424842
O       5.77499      5.70916      4.94534        -0.197652      0.157981     -1.322877
O       5.83553      5.80111      9.37402        -0.161508     -0.221328     -1.150926
O       5.69110      9.70138      0.67980         0.192305     -0.457800     -1.430464
O       5.68351      9.48395     13.68936         0.137098      0.275602     -1.685494
O       5.82564      9.54885      4.96677        -0.079671      0.423162     -1.685564
O       5.64989      9.59977      9.30694         0.240481     -0.095410     -0.864529
O       9.72102      1.81218      0.57790        -0.665631     -0.306222     -0.610031
O       9.54270      2.01102     13.82565        -0.072169     -0.064551     -1.640452
O       9.59785     13.31243      0.69919        -0.175174      0.374043     -1.706499
O       9.76038     13.35815     13.59466        -0.366179      0.069775      0.245500
O       9.66738      1.92093      4.87687        -0.296521     -0.101617     -0.877803
O       9.64806     13.21430      5.05146        -0.548231      0.709542     -1.609069
O       9.60319      1.83675      9.29249         0.040236      0.289919     -1.623618
O       9.56353     13.65230      9.34143        -0.260732     -0.508482     -1.234900
O       9.55254      5.73078      0.54316        -0.211414      0.223074      1.099796
O       9.66330      5.66602     13.83432        -0.708251      0.159522     -1.367177
O       9.62428      5.77944      5.00106        -0.221939      0.172891     -2.034486
O       9.74498      5.74170      9.34600        -0.587761      0.066773      0.727735
O       9.46598      9.52086      0.60201         0.049120      0.126655     -2.726354
O       9.52884      9.58025     13.66330        -0.227743      0.006940     -0.467558
O       9.45287      9.57492      5.10268         0.179404     -0.105045     -2.089095
O       9.55849      9.47453      9.38689         0.213258      0.184241     -0.463965
O       3.90508      1.76883      2.81753        -0.128843      0.513455     -0.338676
O       3.81552      1.82556     15.86759         0.501112      0.446332     -0.038162
O       3.82807     13.42440      2.89465         0.053621      0.057604     -0.368516
O       3.76507     13.35357     15.85075        -0.022546      0.129439     -0.328051
O       0.08432      1.89141      2.77906        -0.226698      0.121358      0.286973
O       0.06916      1.88470     15.94199        -0.842214     -0.320021     -0.591530
O       0.01387     13.39760      2.73152        -0.292682      0.426594     -0.145341
O      15.29552     13.29612     15.85891         0.118711      0.690401     -0.319686
O       3.84482      1.95824      7.27103         0.639958      0.324887     -0.914592
O       3.82578     13.38764      7.14997         0.019112      0.172989     -0.515644
O      15.27714      1.97405      7.18743         1.218950     -0.371367     -0.377955
O      15.30571     13.55024      7.24171         0.898716     -0.549344     -0.555360
O       3.80225      2.01292     11.38556         0.676866     -0.648711      0.210758
O       3.74709     13.40259     11.48623         1.121314      0.029610      0.004393
O      15.33637      1.89806     11.48044         1.115090      0.093588     -0.090113
O      15.34882     13.51411     11.46683         0.001332     -0.341386      0.134320
O       3.81951      5.67632      2.82803        -0.056680      0.849967     -0.026610
O       3.84393      5.71216     15.92152        -0.134235     -0.616757     -0.599547
O       0.10891      5.74050      2.84359        -1.301627     -0.441064      0.098191
O       0.04713      5.65664     15.85848        -0.602363      0.913607     -0.250836
O       3.84365      5.72357      7.21389        -0.452954      0.401785     -0.079315
O      15.32770      5.77967      7.19598         0.188091      0.216800     -0.324256
O       3.71768      5.68018     11.34918         2.929918      0.667723      0.532024
O       0.00023      5.68089     11.55116        -0.173017      0.474645     -0.086223
O       3.81729      9.60714      2.83251        -0.852593     -0.060437     -0.087547
O       3.75090      9.56021     15.76782        -0.203245      0.472285      0.113031
O      15.19731      9.64838      2.69514         1.987791      0.069006      0.384074
O      15.23800      9.51778     15.86314         0.444435      0.367680      0.059725
O       3.80554      9.69859      7.03216         0.259149     -0.211209     -0.042323
O      15.31835      9.66254      7.15095         0.047476     -0.613886     -0.131517
O       3.73459      9.56541     11.43824         1.239127     -0.041567      0.319007
O      15.28591      9.47558     11.62183         0.151265      0.441524     -0.869528
O       7.63420      1.96827      2.74028         1.242699     -0.227202      0.026530
O       7.71590      1.88326     15.96939        -0.743424     -0.446285     -0.098652
O       7.60430     13.34583      2.89855         1.232400     -0.095564     -0.237339
O       7.71076     13.43551     15.78705        -0.150800     -0.117350     -0.233622
O       7.67914      2.01164      7.12250         0.185292     -0.500208     -0.364086
O       7.62218     13.45298      7.10028         0.717348      0.147908      0.126265
O       7.61537      1.91723     11.39809         0.350909     -0.069731      0.277719
O       7.63922     13.48527     11.46034        -0.578993     -0.335843      0.321378
O       7.66246      5.77315      2.82044         0.186242     -0.468500     -0.510751
O       7.52895      5.70673     15.93953         0.780316      0.580102     -0.387946
O       7.61709      5.79796      7.06329         0.745594     -0.032665      0.311794
O       7.72391      5.79380     11.37727        -0.483285     -0.106593      0.603400
O       7.59153      9.50564      2.76829         2.036867      0.474702     -0.032496
O       7.55672      9.54900     15.87440         0.484552     -0.333669     -0.304384
O       7.67007      9.51024      7.20126        -0.572481      0.671272      0.086270
O       7.62890      9.58148     11.45414         0.648650     -0.367848      0.269361
O      11.50990      1.71376      2.65099        -0.042380      0.440059      0.330636
O      11.60004      1.96318     15.91226        -0.273685     -0.361899     -0.283478
O      11.46414     13.45674      2.80693         0.841829      0.132200     -0.309463
O      11.45483     13.44094     16.04212        -0.160408     -0.351121     -0.653503
O      11.48569      1.88890      7.15643         0.457058      0.602037     -0.323890
O      11.46423     13.42704      7.04824         0.377784      0.128832      0.427489
O      11.49649      1.90512     11.52974         0.522565     -0.392271     -0.713402
O      11.51747     13.50152     11.37421        -0.063250     -0.350729      0.525597
O      11.49661      5.80928      2.83450        -0.208261     -0.233436     -0.305240
O      11.45122      5.63621     15.95942         0.295247      0.246409     -0.312962
O      11.50006      5.77324      7.03616         0.114185     -0.098376      0.268636
O      11.51329      5.64823     11.67608        -0.138429      0.244120     -0.670644
O      11.50525      9.54537      2.77760        -0.341160     -0.206511     -0.254894
O      11.46606      9.59694     15.82805        -0.894910     -0.344012      0.180191
O      11.50218      9.63921      7.21154         0.510205     -0.200356     -0.572290
O      11.48721      9.62351     11.59849         0.034238      0.341962     -0.522438
O       2.00715      3.78274      2.73540        -0.088993     -0.123349      0.056848
O       1.89503      3.85919     15.74598         0.673720     -0.857819      0.299554
O       1.98185      0.03901      2.78624        -0.380186     -1.535723      0.176268
O       1.85807     15.34586     15.76668         0.062658     -1.397543      0.112702
O      13.37232      3.80838      2.77080         0.199415      0.233301      0.358626
O      13.56529      3.75527     15.95223        -0.947947      0.082189     -0.603062
O      13.49025      0.02719      2.83668        -0.196452     -1.310299     -0.115704
O      13.45387      0.00445     15.82886         0.008765     -0.593465      0.135584
O       1.97150      3.82646      7.23103        -0.543784      0.880122      0.240812
O       2.00028      0.08747      7.17212        -0.676860     -1.102360     -0.615527
O      13.46332      3.86912      7.15226        -0.269186     -0.115691     -0.454348
O      13.41028     15.35426      7.14490        -0.150726      0.437086     -0.291666
O       1.97098      3.79911     11.45403        -0.782024      0.047299     -0.008080
O       1.92955     15.33179     11.50375        -0.228356      0.524730     -0.064125
O      13.42857      3.82896     11.47834         0.215603     -0.923345     -0.035235
O      13.52159      0.02524     11.54191        -0.730780     -0.527848     -0.150455
O       1.85068      7.69301      2.79229         0.416343      0.242925     -0.300090
O       1.86749      7.64525     15.70275         0.231160      0.137262      0.456574
O      13.53674      7.60674      2.73883        -0.614639      1.728539      0.130206
O      13.30901      7.54612     15.74503         0.260738      1.114520      0.808958
O       1.96509      7.73953      7.08387        -0.555410     -0.063431      0.297006
O      13.32329      7.64736      7.07331         0.907944      0.759881     -0.094198
O       1.87315      7.73571     11.47838        -0.025366     -1.911450      0.113755
O      13.28446      7.63496     11.55394         0.684547      0.090734     -0.364902
O       1.92166     11.58791      2.78413         0.145465     -1.660004     -0.101884
O       1.84753     11.43979     15.86662        -0.218217      0.504934     -0.237008
O      13.37266     11.57438      2.74899         0.098023     -0.071971     -0.334481
O      13.23131     11.51314     15.83405         0.728114     -0.171767      0.139234
O       1.87280     11.50897      7.08612        -0.272815      0.921435     -0.056056
O      13.52735     11.60334      7.04972        -0.467134     -1.342942      0.732105
O       1.87050     11.54701     11.45450        -0.369617     -0.712503     -0.177565
O      13.55990     11.49547     11.45249        -0.723949      0.275373      0.300406
O       5.67211      3.82259      2.80646         0.687896     -0.303056     -0.507001
O       5.80634      3.77656     15.85935        -0.670448     -0.133555     -0.162352
O       5.90959     15.29404      2.82992        -0.654275      0.365062     -0.202293
O       5.64334     15.25551     15.99184         1.132670      0.424947     -0.616976
O       5.74460      3.88914      7.05214         0.238260     -0.844742      0.441248
O       5.80318      0.01745      7.12146        -0.182426     -0.183658     -0.414854
O       5.77479      3.83543     11.52547        -0.219316      0.717009     -0.466945
O       5.73151     15.32278     11.36471        -0.309434      1.251971      0.386236
O       5.71504      7.68590      2.80375        -0.189372     -0.913689     -0.229342
O       5.49923      7.62981     15.75118         1.479667     -0.005624      0.139481
O       5.71309      7.71304      7.02621        -0.103632     -0.369404      0.307872
O       5.81743      7.67690     11.45748        -0.613675     -0.533043      0.193798
O       5.68906     11.47590      2.75462         0.198772      0.546028      1.047565
O       5.75457     11.51949     15.81725        -0.202279     -0.267871     -0.264746
O       5.78303     11.53879      7.23253         0.063938     -0.542676     -0.764961
O       5.69746     11.48009     11.43085         0.165841      0.064289      0.384996
O       9.72240      3.79687      2.66073        -0.693905     -0.039916      0.104269
O       9.51907      3.82100     16.01770        -0.090671      0.305785     -0.205667
O       9.58577     15.28048      2.84679        -0.719240      0.050926     -0.274972
O       9.62609     15.30131     15.78153         0.016704     -0.027535      0.425431
O       9.61534      3.83628      6.99619        -0.321900      0.335672      0.555882
O       9.71425      0.08817      7.08725        -1.228332     -1.321680     -0.298542
O       9.59848      3.75490     11.53273        -0.186260      0.718437     -0.450188
O       9.51204      0.00762     11.52170         0.365118      0.343320      0.155687
O       9.64503      7.63214      2.73224        -0.516929      0.489074      0.141438
O       9.56131      7.65350     15.96225        -0.393988      0.282854     -0.543356
O       9.59492      7.69117      7.20558         0.079820     -0.349124     -0.237394
O       9.75803      7.60401     11.63443        -1.386472      0.713846     -0.698835
O       9.68505     11.42407      2.79202        -1.043532      0.219792     -0.421113
O       9.47759     11.40897     15.82830         0.612570      1.021053     -0.074697
O       9.60267     11.52867      7.17072        -0.595534      0.207578      0.353723
O       9.45388     11.57112     11.51551         0.712322     -1.049203     -0.478849
