  # total energy = -7867.49157919 
CRSYTAL
PRIMVEC
    15.010000000000000    0.0000000000000000    0.0000000000000000
     0.0000000000000000   15.010000000000000    0.0000000000000000
     0.0000000000000000    0.0000000000000000    16.400000000000000
PRESSURE
18.2954 18.2747 8.50054 0.177284 -0.070403 0.002549
PRIMCOORD
320 1
Pb       3.57993      3.66287      3.97072         0.118434      0.502732      0.847698
Pb       3.68366      3.69974     16.33589        -0.175398     -0.051995      0.768316
Pb       3.82414     14.86277      4.11103        -0.369503      0.992467      0.067125
Pb       3.77788     14.98052      0.05583        -0.162502      0.150443      0.317425
Pb       0.00193      3.78578      4.20134        -0.220865     -0.301921     -0.828455
Pb      14.94076      3.74188      0.11893         0.156772      0.008942      0.280682
Pb      14.95464     14.99034      4.17105        -0.055792      0.211119      0.057192
Pb       0.05016      0.01677      0.01326        -0.471597     -0.027938      0.654946
Pb       3.70011      3.71011      8.16143        -0.347689      0.430572      0.139453
Pb       3.72805      0.14160      8.21536         0.180151     -1.199563      0.220772
Pb      14.88516      3.66776      8.12399         0.080632      0.353801      0.154492
Pb      15.00257      0.08163      8.20867        -0.418612     -0.379303      0.207716
Pb       3.74914      3.65183     12.45354        -0.174079      0.487438     -0.368357
Pb       3.70547     14.98177     12.25709        -0.217396     -0.186280      0.199592
Pb      14.89768      3.77770     12.32245         0.260613      0.492889     -0.376090
Pb      14.94247      0.00497     12.32653         0.126255     -0.512003     -0.066270
Pb       3.89813      7.53096      4.18425        -0.210063     -0.481041     -0.217643
Pb       3.76491      7.59200     16.29873        -1.044313     -0.406557      0.830322
Pb       0.09391      7.52749      4.13474        -0.381652     -0.065624     -0.152313
Pb       0.08629      7.42626      0.02686        -0.374388      0.737656     -0.091650
Pb       3.73724      7.47895      8.36616         0.274884     -0.210726     -0.569345
Pb       0.01340      7.51225      8.16427        -0.290329     -0.315089     -0.133708
Pb       3.70247      7.33478     12.39544        -0.112133      0.358945     -0.329294
Pb      14.95415      7.56812     12.31652        -0.170314     -0.363529     -0.025780
Pb       3.87105     11.13182      4.03808        -0.511453      0.210915      0.305512
Pb       3.76642     11.32329      0.15405        -0.447585     -0.322842     -0.490946
Pb       0.02634     11.22499      4.15529        -0.216543      0.068954     -0.156715
Pb       0.05561     11.15801      0.06588        -0.522794      0.070201      0.028342
Pb       3.70258     11.30651      8.20112         0.215018      0.167448      0.761769
Pb       0.00206     11.28595      8.15574        -0.171252      0.273378      0.039113
Pb       3.72977     11.12490     12.34595        -0.229428      0.588878     -0.284117
Pb      14.98541     11.18825     12.30035         0.140896      0.278857      0.017313
Pb       7.41896      3.81106      4.11386         0.228294     -0.246323      0.006388
Pb       7.44254      3.68318      0.06416        -0.000445     -0.040807      0.043638
Pb       7.50061     14.96919      4.06456         0.253658      0.142777     -0.226433
Pb       7.64865     14.92361      0.02833        -0.895751      0.250611      0.321978
Pb       7.43350      3.82045      8.26055         0.376149     -0.574873     -0.082729
Pb       7.38197     14.92957      8.23626         0.787658      0.134874     -0.193320
Pb       7.44707      3.71470     12.39373         0.699050      0.071174     -0.064231
Pb       7.41388      0.09422     12.22599         0.297580     -0.354071      0.505218
Pb       7.63089      7.43893      4.19272        -0.995090     -0.088571     -0.427859
Pb       7.46644      7.43099     16.38737         0.244939     -0.124972     -0.146370
Pb       7.54900      7.44495      8.13206        -0.625755      0.203833      0.060755
Pb       7.43541      7.53594     12.22143         0.123241      0.004445      0.422636
Pb       7.46066     11.12825      4.14245         0.230600      0.247062     -0.589610
Pb       7.46041     11.22770     16.37893         0.098721      0.290846     -0.096196
Pb       7.52493     11.25303      8.21798        -0.232486      0.085568      0.575910
Pb       7.46684     11.29074     12.31818         0.213790     -0.159753     -0.093255
Pb      11.36104      3.74114      4.17080        -0.340692     -0.423586     -0.493959
Pb      11.22846      3.72973      0.06740         0.039421      0.165095     -0.213224
Pb      11.18222     14.93106      4.08867        -0.038890      0.415094     -0.287777
Pb      11.37083     15.00598     16.35752         0.158865     -0.132628      0.130860
Pb      11.17294      3.67128      8.32503         0.642902      0.104513     -0.208276
Pb      11.20997     14.99910      8.16556        -0.019797      0.020006      0.300082
Pb      11.18161      3.74160     12.35342        -0.107517      0.297410      0.094624
Pb      11.17589     14.82014     12.32822         0.599230      0.394352      0.225874
Pb      11.26928      7.50417      4.09039         0.122402      0.004818     -0.000018
Pb      11.26370      7.44081     16.34508        -0.145832      0.021723     -0.053460
Pb      11.33944      7.50082      8.21171        -0.110722     -0.347396      0.184361
Pb      11.06857      7.55892     12.35513         0.692876     -0.217908      0.034783
Pb      11.15867     11.23621      4.10398         0.546579     -0.189306     -0.507758
Pb      11.16568     11.37997     16.39188         0.859578     -0.568659     -0.027550
Pb      11.31558     11.35683      8.13192         0.014316     -0.379950      0.541244
Pb      11.19866     11.20117     12.35580        -0.247269     -0.123311     -0.410287
Ti       1.75997      1.78664      2.21538         0.281280      0.708612     -0.960459
Ti       1.78048      1.82145     14.37596         1.383940      0.616015      0.439755
Ti       1.82582     13.09915      2.26320         0.856703      0.439866     -0.581416
Ti       1.80512     13.13207     14.50978         0.558956     -0.843353     -1.026374
Ti      13.07451      1.84718      2.09339         0.398259      0.608352     -0.311016
Ti      13.13314      1.92075     14.38260        -0.750329     -1.279123      1.882972
Ti      13.12215     13.13268      2.14067         0.139838     -0.038515     -0.913209
Ti      13.17315     13.11259     14.40594        -0.894446      0.317253      0.189052
Ti       1.90728      1.80980      6.19155        -1.737696      1.222828     -0.753497
Ti       1.88723     13.17715      6.18985        -0.475103     -0.810029     -0.228406
Ti      13.05768      1.80402      6.12983         0.565970      0.473453     -0.094270
Ti      13.08423     13.17410      6.13012         0.732338     -0.680709      0.293953
Ti       1.87332      1.85945     10.29017        -0.600509     -0.149506     -0.018845
Ti       1.84753     13.10635     10.29624         1.326661     -0.149802     -0.443101
Ti      13.14147      1.89876     10.37717        -0.679410     -0.792508     -1.058303
Ti      13.16971     13.09580     10.31210        -0.485326      0.125898      0.088838
Ti       1.80967      5.68316      2.13951         0.191120     -0.477466     -0.763190
Ti       1.74085      5.53558     14.41125         1.247732      1.642247     -0.456718
Ti      13.08023      5.69010      2.11646         1.430465     -1.086928     -0.274850
Ti      13.06745      5.61676     14.37105         0.141447      0.586886     -0.610558
Ti       1.82909      5.61928      6.21626        -0.129676      0.221122     -0.291340
Ti      13.03509      5.54760      6.14360         1.002910      0.732341      1.205610
Ti       1.84519      5.56351     10.34342         0.091999      0.333414      0.737445
Ti      13.08254      5.66887     10.31979        -0.453917      0.222573     -0.201691
Ti       1.88528      9.41256      2.18233        -0.019492     -0.190390     -0.758269
Ti       1.83431      9.39716     14.34079         0.332194     -0.983051      0.622611
Ti      13.09622      9.41047      2.12855         0.745603      0.017648     -0.282643
Ti      13.12227      9.35951     14.48580         0.019130      0.339757     -0.092678
Ti       1.90807      9.40936      6.21531        -0.142254     -0.548092     -0.401262
Ti      13.13841      9.35246      6.17383         0.389063      0.627749     -0.310773
Ti       1.82402      9.29086     10.31605         0.153853      1.261193      0.323928
Ti      13.04586      9.42887     10.27763        -0.099545     -0.347533      0.507865
Ti       5.57917      1.90432      2.20144         0.502223     -1.637834     -1.193302
Ti       5.57551      1.75756     14.46763         0.433501      1.599911      0.066968
Ti       5.63687     13.08286      2.16984         0.139050      0.369612     -0.485242
Ti       5.55859     13.14689     14.35688         0.653321     -0.819713      0.023949
Ti       5.70632      1.86777      6.23624        -0.557570     -0.302220     -0.881870
Ti       5.60124     13.12002      6.13245         0.471997      0.508640      1.680261
Ti       5.62388      1.97227     10.25786         0.902475     -0.896223     -0.179007
Ti       5.62726     13.18074     10.36784        -0.570018     -1.497762     -0.548002
Ti       5.51764      5.54449      2.07562         0.489470      1.630250      0.017694
Ti       5.55790      5.60484     14.44872         0.718893     -0.667100     -0.092269
Ti       5.55527      5.55774      6.25420        -0.471384      0.813292     -0.763955
Ti       5.66727      5.56656     10.32748        -1.255248      1.878365     -0.108377
Ti       5.73010      9.28976      2.05224        -1.040394     -0.355380      0.071620
Ti       5.59330      9.39180     14.42203         0.498784     -0.062972     -0.780464
Ti       5.60391      9.43170      6.24929         0.672410     -1.855902     -0.150908
Ti       5.50806      9.36954     10.30227         0.975917      0.367386     -0.274085
Ti       9.40867      1.87883      2.17591        -0.847807     -0.174872      0.622134
Ti       9.35676      1.79948     14.46338        -0.199753      0.862781     -0.533486
Ti       9.40552     13.06182      2.09354        -1.212456      0.204631      0.004570
Ti       9.34564     13.11894     14.45465        -0.275459     -0.148326     -0.821702
Ti       9.36304      1.85657      6.13685         0.102982     -0.945566      0.170070
Ti       9.33347     13.02316      6.18050        -0.282146      2.140384      0.236931
Ti       9.48766      1.81424     10.40783        -1.723956      1.277541      0.332618
Ti       9.39066     13.13902     10.28215        -0.160179     -1.248750     -0.228202
Ti       9.38768      5.56423      2.19058        -0.743892      0.029379     -1.148026
Ti       9.31900      5.54215     14.45574        -0.288386      0.166018     -0.390421
Ti       9.36298      5.53267      6.19903         0.596863      0.052431      0.348933
Ti       9.41730      5.59773     10.27139        -0.417288     -0.254415     -0.162941
Ti       9.38232      9.28199      2.03100         0.211865      0.572556     -0.425714
Ti       9.35589      9.34067     14.44899         0.489133     -0.260641     -0.537789
Ti       9.40679      9.33664      6.22014        -0.352428      0.108318      0.503633
Ti       9.27966      9.35867     10.26888         0.965083      0.660476      0.910436
O       1.79770      1.93420      0.36763        -0.218884     -0.693719      0.490402
O       1.93385      1.90904     12.56547        -0.269575     -0.059399     -0.117602
O       2.06668     13.09157      0.43070        -0.521186      0.125735     -0.458884
O       1.69003     13.16538     12.70324         0.428109     -0.025510      0.224131
O      13.21169      1.87948      0.20930        -0.390177      0.094849      0.665873
O      13.24212      1.97576     12.65769        -0.138110     -0.284117     -2.344262
O      13.04468     13.14154      0.31819         0.048301      0.210863     -0.105300
O      13.24494     13.07444     12.59680        -0.221637      0.074823      0.058759
O       1.84416      1.91592      4.35940        -0.165848     -0.059066      0.673487
O       1.86380     13.11075      4.37244        -0.181246     -0.004852      0.932042
O      13.08991      1.81321      4.29782        -0.308351      0.035813      1.354282
O      13.08979     13.32814      4.31843        -0.147390     -0.819918      0.481434
O       1.78625      1.81229      8.45140         0.215896      0.066453      0.265327
O       1.99347     13.15948      8.43004        -0.181951     -0.015628      0.586127
O      13.07342      1.76416      8.52491        -0.047004      0.338284      0.546800
O      13.12321     13.11451      8.49749        -0.003057     -0.282676     -0.197315
O       1.80747      5.69860      0.26439        -0.177095     -0.140959      0.539837
O       1.87783      5.56461     12.57717        -0.198089     -0.326230      0.352761
O      13.10476      5.57005      0.29823         0.198893      0.149437     -0.510176
O      13.05575      5.66630     12.52347         0.358334     -0.228120      0.808055
O       1.85732      5.72855      4.38200        -0.301545     -0.617269      0.230456
O      13.11998      5.56575      4.35492        -0.203101      0.316015     -0.315214
O       1.83403      5.68364      8.56134         0.059967     -0.038835     -0.834966
O      12.97130      5.54436      8.49326         0.277671      0.583659      0.133988
O       1.86875      9.36105      0.36394         0.011023      0.270142     -0.278262
O       1.74682      9.35011     12.55291         0.469335      0.364486     -0.306154
O      13.27630      9.43212      0.34309        -0.894844     -0.314711     -0.370419
O      13.10465      9.17114     12.67832         0.039627      1.044335     -0.292585
O       1.91472      9.42857      4.36203        -0.469229     -0.190185      0.670375
O      13.12333      9.39736      4.35543         0.114768     -0.013472      0.335771
O       1.92274      9.36577      8.49338         0.116874     -0.157235     -0.509825
O      13.13499      9.51841      8.50315        -0.038148     -0.180909     -1.156359
O       5.61441      1.88738      0.32878        -0.164218     -0.160203      0.735257
O       5.46385      1.84292     12.61989         0.392826     -0.085575     -0.239836
O       5.61903     13.05632      0.34846        -0.294242     -0.097203     -0.474865
O       5.63983     13.22514     12.55907        -0.099215      0.190998      0.150207
O       5.64716      1.75942      4.38693        -0.032804      0.672833      0.594098
O       5.68314     13.06154      4.36844         0.168023      0.379159     -0.124722
O       5.67808      1.97239      8.40650        -0.278159     -0.309301      1.176404
O       5.67093     13.07570      8.50593        -0.501060      0.190620      0.649231
O       5.54085      5.49933      0.27809         0.358573      0.389307      0.036254
O       5.60499      5.71129     12.59538         0.223770     -0.289005      0.345386
O       5.53164      5.63222      4.42496         0.148371     -0.275364      0.099308
O       5.52532      5.59881      8.49854         0.254533     -0.466935     -0.028878
O       5.68395      9.34052      0.18710         0.341507      0.429318      0.774518
O       5.51259      9.28423     12.58268         0.450733     -0.103359      0.629761
O       5.60560      9.25556      4.34592         0.660047      0.475114      1.015773
O       5.47550      9.37854      8.42843         0.182227      0.114351      0.473950
O       9.25587      1.99254      0.40897         0.509457     -0.325073     -1.075808
O       9.37400      1.94051     12.64807        -0.343153     -0.603742      0.145953
O       9.32940     13.09757      0.25673        -0.001593     -0.212821      0.337819
O       9.39792     13.11107     12.61134        -0.034103      0.278039      0.391750
O       9.40795      1.81071      4.34791        -0.311038      0.116867      0.510951
O       9.40684     13.04725      4.35142        -0.399594     -0.036974      0.368761
O       9.58016      1.85142      8.64294        -0.666514      0.024163     -1.067999
O       9.40742     13.14279      8.44142        -0.285442     -0.066470      0.874501
O       9.33201      5.57476      0.33053         0.152553     -0.009995      0.354875
O       9.36211      5.50644     12.64439        -0.433852      0.242257      0.074574
O       9.45220      5.63474      4.38128        -0.292088     -0.040607      0.159534
O       9.46679      5.65731      8.37869        -0.206958     -0.249966      0.855958
O       9.38207      9.33314      0.19738        -0.420893     -0.283007      0.791111
O       9.39709      9.38311     12.59584         0.035631      0.003362      0.147230
O       9.38100      9.46604      4.41683         0.016323     -0.413736      0.209121
O       9.26697      9.37834      8.49144         0.480384     -0.409205     -0.669020
O       3.67046      1.75159      2.42681         0.498038     -0.026159     -0.126449
O       3.66895      1.99891     14.74884         0.337634     -0.327084     -0.299060
O       3.75618     13.17569      2.55220         0.517549     -0.181326     -0.624360
O       3.73268     12.93044     14.64131        -0.213165      0.195266      0.305563
O      14.86660      1.88767      2.52755         1.781222      0.074813     -0.351264
O       0.02690      1.62193     14.68239        -1.492696      0.487677     -0.160929
O      14.98851     13.06677      2.40978        -0.234507     -0.339803      0.072974
O      14.97401     13.29047     14.83832         0.443779     -0.121610      0.044517
O       3.66663      1.67570      6.47701         1.919372      0.379465      0.082257
O       3.78409     13.46076      6.31877        -0.542225     -0.650983      0.473554
O      14.92785      1.98848      6.47796         0.587272      0.136721     -0.062436
O      14.99381     12.98109      6.39555         0.405250     -0.057405      0.158390
O       3.75489      1.85117     10.32709        -0.163875     -0.067642      0.784925
O       3.72880     13.27044     10.72968         0.297628     -0.355221     -0.529323
O      14.94292      1.77735     10.53016         1.398748      0.776578      0.382733
O       0.05423     13.00757     10.51314        -1.135378     -0.078403      0.110571
O       3.68173      5.84245      2.35153         0.030938     -0.672071      0.164721
O       3.71813      5.46681     14.73516        -0.511727      0.016750     -0.566939
O      14.97264      5.46428      2.47466         0.392426      0.774204     -0.212883
O      14.95296      5.79217     14.62587        -0.074302     -0.182973      0.049609
O       3.67064      5.70797      6.47005         0.320890      0.181929      0.474914
O      14.91529      5.48370      6.57195         0.750281     -0.009047     -0.250442
O       3.74260      5.65965     10.65920        -0.192154     -0.155188     -0.413408
O      14.92840      5.64526     10.64010         0.446760     -0.339156     -0.222453
O       3.83065      9.46544      2.29389        -0.104717     -0.738656      0.141579
O       3.74051      9.55886     14.71251         0.222093     -0.100227     -0.007914
O      14.99482      9.56040      2.34754         0.286808      0.327936      0.675357
O       0.00787      9.36420     14.75903        -0.577846     -0.596383     -0.111206
O       3.78840      9.14765      6.30730        -0.831218      0.078797      0.701610
O       0.01658      9.54051      6.57256         0.208838     -0.217106     -0.529699
O       3.72510      9.29684     10.67690        -0.607288     -0.119501     -0.245214
O      14.98992      9.44420     10.62380        -0.360551     -0.031846     -0.363980
O       7.51281      2.11672      2.47774        -0.850566     -0.407916     -0.177589
O       7.46639      1.60634     14.67168        -0.331509      0.331623     -0.088609
O       7.46324     13.11172      2.39527         1.592473     -0.301285      0.235775
O       7.45849     13.28475     14.64621         0.558851      0.137578      0.371290
O       7.52073      2.05461      6.55468         0.097961      0.131068     -0.187535
O       7.49814     12.94487      6.54748        -0.437857      0.337516     -0.504286
O       7.49297      2.07233     10.57065         0.007985     -0.652168      0.184632
O       7.49526     13.03665     10.62656        -0.057801      0.398620     -0.214284
O       7.44719      5.50711      2.49058         0.290281     -0.126213     -0.332138
O       7.46367      5.78137     14.72250        -0.552498     -0.247408     -0.076479
O       7.47740      5.46818      6.49315         0.631780     -0.539986     -0.016102
O       7.53597      5.61567     10.44892        -0.484176     -0.064027      0.377037
O       7.55525      9.32840      2.48484        -0.095658      0.274157     -0.256309
O       7.53609      9.17832     14.51055        -1.376184     -0.164406      0.717896
O       7.49017      9.50504      6.58603         0.087051     -0.096189     -0.733202
O       7.45197      9.54909     10.62253        -0.580212     -0.924514     -0.135543
O      11.25771      1.84383      2.43824        -0.592899     -0.061257     -0.272759
O      11.21389      1.95514     14.64612         0.756513      0.586994      0.488793
O      11.19330     13.18698      2.40053         0.306941     -0.133814      0.043712
O      11.22024     13.17189     14.72164         0.394237     -0.856357     -0.156673
O      11.24804      1.59584      6.44000        -0.239473      0.125697     -0.022320
O      11.20234     13.19102      6.51190         0.789587      0.443360     -0.438717
O      11.26892      1.86751     10.69280         0.641773     -0.930522      0.553488
O      11.26019     13.16544     10.62481        -0.370371      0.000921     -0.132550
O      11.27520      5.79850      2.23104        -0.835414     -0.194747      0.771823
O      11.23368      5.53838     14.65555        -0.151716     -0.743383      0.646780
O      11.24677      5.75189      6.39035        -0.766359      0.531430      0.197776
O      11.17636      5.70406     10.66218         1.558757     -0.225240     -0.173207
O      11.21693      9.30716      2.45264         0.214132     -0.282100     -0.163197
O      11.26609      9.51950     14.76023         0.084532     -0.324685     -0.083907
O      11.29428      9.21810      6.50603        -0.939208      0.434949     -0.111012
O      11.15957      9.38461     10.59266         0.778644      0.194505     -0.057845
O       1.84078      3.74394      2.36015         0.416111      0.123589      0.364242
O       1.67879      3.75559     14.74302        -0.131568     -1.458527     -0.272722
O       1.71292     14.95986      2.61552         0.516724      0.597950     -0.897866
O       1.91544     15.00866     14.85293         0.904227     -0.416817     -0.281492
O      13.05030      3.76339      2.39629        -0.364534     -0.237598     -0.153594
O      13.32634      3.75483     14.65708        -0.071660      0.291800      0.068559
O      13.07099     14.98703      2.27384         0.166495      0.760727      0.307223
O      12.93026     15.00555     14.54384         0.530352      0.591108      0.392589
O       1.98528      3.73704      6.50558        -0.466911     -0.108386     -0.083019
O       1.63807     15.00684      6.46280         0.048359     -0.028092     -0.043540
O      12.93127      3.71180      6.50520        -0.039680     -0.711822     -0.200457
O      13.33866     14.98471      6.51648        -0.546861     -0.007306     -0.172311
O       1.84204      3.71152     10.57474        -0.075726     -0.284680      0.023607
O       1.82001     14.98485     10.65522        -0.003705      0.667897     -0.155104
O      12.92082      3.75258     10.55635         0.978958     -0.129009      0.143546
O      13.19794     14.89757     10.70994        -0.382215      1.443808     -0.081647
O       1.73096      7.57328      2.35819        -0.202784     -0.666570      0.345881
O       1.93838      7.51774     14.48434         0.363742     -0.597658      0.932377
O      13.28556      7.52038      2.35788        -0.127301      0.306328      0.342638
O      13.02326      7.48003     14.71287        -0.024168      0.196032      0.435583
O       1.68880      7.51156      6.38056        -0.164815      0.129939      0.577872
O      13.26285      7.50226      6.36718         0.089754     -0.240949      0.598590
O       1.84219      7.49580     10.62442        -0.149798     -0.712358     -0.134113
O      13.09561      7.59411     10.42426         0.070521     -1.438641      0.145660
O       2.01613     11.28802      2.54110        -0.546383     -0.567615     -0.372183
O       1.71120     11.18942     14.71035         0.160440      2.171455      0.150467
O      12.93739     11.30508      2.34139         0.121128     -0.928304      0.657756
O      13.22757     11.31075     14.76567        -0.153831     -1.093997     -0.295511
O       2.10613     11.27665      6.49223        -0.172720     -0.165626     -0.120033
O      13.11461     11.29124      6.36109        -0.828518     -0.312942      0.268577
O       1.99293     11.24097     10.62563        -0.002740      0.063214     -0.193362
O      13.02407     11.23280     10.70318         0.295333      0.710743      0.093164
O       5.36845      3.75402      2.43861         0.394213     -0.697839      0.161379
O       5.75713      3.67195     14.70044        -0.161498      0.619955     -0.432531
O       5.71227     14.98126      2.40737        -0.153450      0.749060      0.040358
O       5.48388     14.97180     14.72283        -0.654107     -0.401276      0.327872
O       5.45938      3.67979      6.57318        -0.097941      0.580709     -0.396145
O       5.72573      0.01398      6.55217         0.619501     -0.393668     -0.124908
O       5.61884      3.79492     10.70913        -0.481794     -1.108466     -0.051329
O       5.73262      0.03741     10.51899        -0.223717      0.913162     -0.022692
O       5.72854      7.44686      2.29633        -0.149889      0.425296      0.053924
O       5.43861      7.45642     14.78161         0.573843      0.678776     -0.653103
O       5.76549      7.38385      6.45850         0.057867      1.639756      0.305513
O       5.64903      7.50355     10.47015         0.251769     -0.040905      0.240376
O       5.70449     11.20249      2.47289        -0.050225     -0.297003     -0.445748
O       5.93828     11.27307     14.56339        -0.798744     -0.698841      0.201261
O       5.45511     11.27659      6.47371        -0.152496     -0.353775     -0.267325
O       5.46068     11.26523     10.76798         0.306103     -0.000653     -0.760662
O       9.54384      3.77804      2.59054        -0.064528     -0.355143     -0.498192
O       9.11181      3.68449     14.79220         0.511683      0.047362     -0.273664
O       9.32044     14.98360      2.37796        -0.358064      0.363747     -0.043038
O       9.46330     14.99219     14.87997        -0.010447      0.090332     -0.407029
O       9.64722      3.66044      6.47496        -0.445515      1.292623     -0.016397
O       9.16256      0.02625      6.52649         0.214362     -1.111716     -0.241852
O       9.46230      3.76001     10.75323        -0.213289     -0.055068     -0.983342
O       9.26654     14.99596     10.67638         0.140143     -0.123552     -0.071141
O       9.36131      7.44780      2.41996        -0.360387      0.430401      0.267562
O       9.46673      7.42597     14.58540         0.491791      0.643735      0.607691
O       9.19816      7.47613      6.37420         0.159121      0.164395      0.150446
O       9.48188      7.46390     10.64121        -1.635014      0.803341     -0.439782
O       9.41909     11.17425      2.28463        -0.147230      0.467425      0.309173
O       9.30265     11.23218     14.65283        -0.360187      0.615230      0.332491
O       9.50114     11.24472      6.55771        -0.037889     -0.863537     -0.339817
O       9.37544     11.27985     10.59636         0.320363     -0.175605     -0.118455
