  # total energy = -7876.58029465 
CRSYTAL
PRIMVEC
    15.3600000000000000    0.0000000000000000    0.0000000000000000
     0.0000000000000000   15.3600000000000000    0.0000000000000000
     0.0000000000000000    0.0000000000000000    17.440000000000000
PRESSURE
1.23336 1.3364 2.09979 0.100056 0.297199 -0.031869
PRIMCOORD
320 1
Pb       3.80474      3.80969      4.43597        -0.020246      0.038338     -0.603784
Pb       3.92036      3.73559     17.38441        -0.284398      0.118565     -0.297424
Pb       3.77395     15.29709      4.40540        -0.037490      0.074608      0.308431
Pb       3.81962     15.35040     17.37702        -0.270993      0.004826     -0.556675
Pb       0.03241      3.78309      4.43747        -0.249637     -0.212484     -0.912279
Pb       0.16731      3.85915      0.07904        -0.636961     -0.007498     -0.687477
Pb       0.07485     15.27846      4.32984        -0.520196      0.396832     -0.104326
Pb      15.11201     15.25745      0.02801         0.522439      0.544159     -0.517874
Pb       3.71771      3.93251      8.65969         0.516658     -0.753144     -0.397095
Pb       3.83944      0.00324      8.82320        -0.127688      0.173228     -0.920757
Pb      15.07787      3.98684      8.66558        -0.000467     -1.091647      0.142889
Pb      15.22087      0.15501      8.76360         0.126034      0.224086     -0.411198
Pb       3.84035      3.73929     12.93355         0.123145      0.565386     -0.342165
Pb       3.70492     15.26013     12.90918         0.241405     -0.206878     -0.060745
Pb       0.02593      3.66181     13.14422        -0.573351      0.246345     -0.200837
Pb       0.03220     15.33778     12.97274        -0.800451      0.166388     -0.237544
Pb       3.89322      7.65461      4.29740         0.341441     -0.014804     -0.471884
Pb       3.66978      7.58182      0.00192         0.105796      0.047754     -0.243972
Pb       0.20694      7.74008      4.33217        -0.757404      0.180060     -0.828875
Pb      15.23407      7.73069     17.37308         0.043448     -0.574028     -0.272829
Pb       3.93866      7.67254      8.74820         0.068260     -0.022691     -0.493699
Pb      15.34533      7.64191      8.71769        -0.681666      0.207948     -0.261587
Pb       3.79126      7.59171     13.04594        -0.152564     -0.183793     -0.721779
Pb       0.06508      7.64639     13.16485        -0.327996      0.007930     -0.620444
Pb       3.64309     11.50777      4.31773         1.014116      0.352701     -0.015251
Pb       3.97570     11.35695     17.33575        -0.133329      0.736179     -0.398239
Pb       0.09375     11.65965      4.22757        -0.365993     -0.314953     -0.437359
Pb      15.21518     11.49203     17.30846         0.197953      0.402915     -0.147469
Pb       3.79093     11.57994      8.73531         0.087781      0.102793     -0.234965
Pb      15.29731     11.36448      8.73809         0.199806      0.136692     -0.493384
Pb       3.92348     11.45313     12.97761        -0.266825      0.462422     -0.470338
Pb       0.16296     11.49482     13.16262        -0.169154     -0.044565     -0.613654
Pb       7.72280      3.68765      4.42426         0.086077      0.066729     -0.431618
Pb       7.61902      3.86164     17.38290         0.400367     -0.202061     -0.449249
Pb       7.72371     15.34371      4.40871         0.306534      0.148059     -0.563117
Pb       7.43477     15.31520     17.37498         0.487706      0.105283     -0.631995
Pb       7.65289      3.83248      8.70977         0.104616     -0.109780     -0.746698
Pb       7.66707     15.27445      8.61087        -0.019118      0.190846     -0.183135
Pb       7.83652      4.00524     13.25213        -0.063043     -0.342855     -0.723355
Pb       7.61936      0.18921     13.02633        -0.220178     -0.383819     -0.366920
Pb       7.61440      7.48446      4.26969         0.028800      0.669104      0.588836
Pb       7.56918      7.67567      0.00215         0.219079     -0.044235     -0.032195
Pb       7.60885      7.84451      8.67347         0.245737     -0.553555     -0.409918
Pb       7.58572      7.62590     12.96781         0.834054      0.127421     -0.519474
Pb       7.72544     11.38158      4.40578        -0.814374      0.304797     -0.725766
Pb       7.53377     11.61682     17.37294         0.408233      0.271667     -0.546210
Pb       7.66853     11.50918      8.69679        -0.074765      0.172069     -0.290867
Pb       7.83060     11.59104     13.03922        -0.463121      0.096901     -0.239465
Pb      11.52738      3.74819      4.35755        -0.299889     -0.404865     -0.857836
Pb      11.61140      3.80685      0.09447        -0.330176      0.095837     -0.670016
Pb      11.57576     15.28028      4.32274        -0.225326      0.386420     -0.754044
Pb      11.35840     15.24900     17.36061        -0.060929      0.142220     -0.140351
Pb      11.50178      4.06319      8.71708        -0.226683     -0.920301     -0.255539
Pb      11.45048     15.29953      8.66054         0.086539      0.432581      0.045221
Pb      11.57650      3.68817     13.31291        -0.051177      0.096236     -0.466754
Pb      11.46710     15.33224     13.06390         0.638741      0.242801     -0.774264
Pb      11.53112      7.68731      4.21166        -0.202935     -0.120940     -0.193691
Pb      11.44184      7.58884      0.06916         0.531418      0.340193     -0.940711
Pb      11.54691      7.68919      8.69536         0.030789      0.292403     -0.412493
Pb      11.39644      7.67005     13.08390        -0.213566     -0.156114     -0.394225
Pb      11.57110     11.38123      4.37481        -0.156494      0.295577     -0.732216
Pb      11.32491     11.47644     17.37706         0.523771     -0.176124     -0.314001
Pb      11.53457     11.53253      8.83087         0.098799     -0.379024     -0.872814
Pb      11.47634     11.43503     13.00512         0.531417      0.154933     -0.167830
Ti       1.83508      1.85695      2.30300        -0.064596      0.996080     -0.631497
Ti       1.84038      1.86689     15.42798        -0.056330     -0.562748      2.794820
Ti       2.01397     13.54384      2.17830        -1.043453     -1.443476     -1.156149
Ti       1.98505     13.44247     15.40826        -0.994055      0.463311     -0.506905
Ti      13.33751      1.89170      2.21008        -0.041264     -0.266878      1.336670
Ti      13.36041      1.89710     15.46975         0.714478      0.012630     -1.300461
Ti      13.40740     13.38193      2.27396        -0.421411      0.372691      0.193139
Ti      13.43775     13.40537     15.28718        -0.458737     -0.022691      0.650168
Ti       1.80615      1.90510      6.68814         0.475794     -0.520482      1.425962
Ti       1.85707     13.45172      6.81001         0.754660      0.389610      0.196905
Ti      13.29933      1.82359      6.66217         0.751851      0.711990     -0.148322
Ti      13.52253     13.35917      6.64255        -0.781060      0.960877      1.085210
Ti       1.86026      1.95072     10.99110        -0.704374     -0.468079     -0.832116
Ti       1.83774     13.36771     10.92226         0.938817      0.089387      0.747726
Ti      13.33105      2.04672     11.02440         0.058269     -1.063100     -0.002144
Ti      13.43533     13.43507     10.89603        -0.179955      0.579162      3.266955
Ti       1.96286      5.76318      2.29610        -0.427112     -0.062718      0.749622
Ti       1.98718      5.66226     15.38498        -0.967817      0.510744      1.351866
Ti      13.47548      5.79478      2.31026         0.037133     -0.913105      0.074235
Ti      13.43215      5.70446     15.42961         0.206345      0.514897      1.979273
Ti       1.85300      5.78860      6.63576         1.759219     -0.756005     -0.320217
Ti      13.41894      5.75012      6.51204        -0.255499      0.211010      0.557093
Ti       1.77844      5.67903     11.00630         0.875438      0.455209      3.705849
Ti      13.42036      5.79845     11.12128        -0.973695     -0.110030     -0.480652
Ti       1.95678      9.66357      2.19696        -0.657586     -0.782071     -0.230899
Ti       2.06646      9.59848     15.38610        -0.892211     -0.087467     -0.057400
Ti      13.37529      9.60074      2.23139         0.711899     -0.048801      0.049317
Ti      13.49302      9.63795     15.29546        -1.686749     -0.564494      2.265360
Ti       1.95482      9.51938      6.75332        -0.355595      1.245687      0.587265
Ti      13.45769      9.57697      6.62199        -0.862332     -0.302124      1.466992
Ti       1.96906      9.47670     11.01711        -0.618315      1.263794      2.916044
Ti      13.44938      9.57892     11.04143         0.457828     -0.116096      1.362629
Ti       5.61514      1.90962      2.32207         0.621468      0.357706      0.381109
Ti       5.62507      2.04549     15.26188         0.809087     -1.714182      0.087389
Ti       5.72925     13.55262      2.32396         0.432349     -1.986506      0.519789
Ti       5.71031     13.53674     15.21989         0.380172     -0.397281      1.466335
Ti       5.71007      1.84108      6.69306        -0.419590      0.334256      1.292561
Ti       5.78014     13.35986      6.66502        -0.431378      0.648665      0.594481
Ti       5.73368      1.88161     11.00588        -0.142942      0.549429     -0.834020
Ti       5.82820     13.44895     11.00207        -0.497542     -0.030295      1.668083
Ti       5.80803      5.74878      2.32489        -0.097873     -0.492701      0.863558
Ti       5.80616      5.80088     15.29322        -0.840155     -0.517498      2.585290
Ti       5.73735      5.70737      6.66975         0.529734      0.492100      0.040468
Ti       5.74346      5.71831     10.95886        -0.512828     -0.495325      1.177473
Ti       5.75459      9.68720      2.26532         0.134510      0.253087      3.647821
Ti       5.86329      9.50299     15.31575        -0.813928      1.290465      1.032885
Ti       5.68415      9.65042      6.67872         0.226452     -0.400521      0.595560
Ti       5.80528      9.59864     11.04678        -0.557453      0.045375     -0.017172
Ti       9.43668      1.94373      2.09463         1.304576     -0.992260      0.564299
Ti       9.44577      1.85906     15.38392         0.628962      1.095576      0.892648
Ti       9.53739     13.33629      2.27282         0.208665      1.159498     -0.846938
Ti       9.55917     13.46276     15.31092        -0.762052     -0.393755      1.936767
Ti       9.58093      1.91390      6.77156        -0.244178      0.447696      0.398382
Ti       9.70020     13.33188      6.62742        -0.418032      1.429987      0.786193
Ti       9.56416      2.00097     10.93295         0.858508     -0.154209     -0.728663
Ti       9.68158     13.44846     10.92066        -0.720847      0.653923      0.539041
Ti       9.59466      5.72740      2.35811         1.058906     -0.405133      0.804788
Ti       9.57679      5.77937     15.42391         0.987715     -0.789951     -0.730939
Ti       9.61532      5.84676      6.56712        -1.236123     -0.992816     -0.017924
Ti       9.58647      5.73932     10.97907         0.459954      0.575748      2.510943
Ti       9.50090      9.59247      2.33180         0.313154     -0.418073      0.809875
Ti       9.54861      9.59839     15.40918         1.827969     -0.318385     -0.839881
Ti       9.54383      9.59782      6.58008         0.965990     -0.756247     -0.203435
Ti       9.56451      9.64424     10.99687         0.288235     -1.517729      1.058887
O       1.93837      1.85599      0.50738         0.062677      0.397432      0.734179
O       1.67937      1.89408     13.76304         0.218371      0.000058     -3.966645
O       1.96241     13.43570      0.40257         0.137259      0.176529      0.383901
O       2.00585     13.45385     13.60696        -0.265003      0.019904     -0.614474
O      13.41681      1.84082      0.48629        -0.193132      0.103702     -2.106275
O      13.38422      1.90690     13.58161        -0.159896      0.197213      0.767221
O      13.37985     13.25600      0.54357         0.103988      0.319520     -1.551537
O      13.38704     13.45616     13.57239        -0.064925     -0.079499     -0.988700
O       1.83957      1.76657      4.96703        -0.134658      0.360165     -2.259864
O       2.00242     13.51686      5.06011        -0.330244     -0.235048     -2.054607
O      13.24505      1.80664      4.89414         0.223709      0.516764     -1.055133
O      13.54855     13.37328      4.90846        -0.280071     -0.135955     -1.973420
O       1.80520      1.90001      9.23038        -0.043462      0.189578     -0.348722
O       1.96444     13.51014      9.17257        -0.723202     -0.235821     -0.209507
O      13.44477      2.07849      9.25466         0.000410     -0.240886     -1.325386
O      13.45492     13.47520      9.20733        -0.000410     -0.190116     -2.574215
O       1.88605      5.74640      0.55030         0.724855     -0.581821     -0.986981
O       1.97756      5.75564     13.69025        -0.257334     -0.005292     -1.906529
O      13.39689      5.76097      0.55070        -0.154069     -0.186414     -0.639389
O      13.48802      5.62145     13.74597        -0.181417      0.484278     -2.799073
O       1.93376      5.86404      4.85495        -0.188122      0.064565     -0.465718
O      13.59877      5.72071      4.77783        -0.257225      0.034908     -0.834976
O       1.92718      5.66534      9.35782        -0.255853      0.129065     -3.846654
O      13.35208      5.85472      9.30641         0.606058     -0.116596     -0.758361
O       1.88642      9.49447      0.45516         0.432987      0.866688     -0.940861
O       2.04852      9.53346     13.61594         0.012163      0.062421     -0.558938
O      13.28761      9.56970      0.48146         0.527567      0.356278     -0.347365
O      13.48680      9.66355     13.60313        -0.229366     -0.177544     -2.397862
O       2.01232      9.42314      5.01841        -0.050159      0.063627     -1.523973
O      13.43552      9.55717      4.92462         0.163481      0.168850     -2.169496
O       1.85220      9.55377      9.36652        -0.289697     -0.296410     -4.170267
O      13.48106      9.43550      9.30637         0.156502      0.038946     -1.722702
O       5.54721      1.88738      0.55624         0.403191      0.271480     -0.823352
O       5.69895      2.02448     13.52329         0.183161     -0.167748     -1.282278
O       5.73612     13.61326      0.57221        -0.042275     -0.517686     -1.502693
O       5.73119     13.60691     13.52026        -0.001477     -0.705670     -1.799582
O       5.72044      1.75253      4.96855        -0.160349      0.435804     -1.947237
O       5.74998     13.29132      4.92775        -0.192064      0.402427     -0.435616
O       5.77264      1.91339      9.22683         0.014608     -0.412575     -0.200176
O       5.88540     13.51247      9.29600        -0.243145     -0.185366     -2.218318
O       5.88819      5.74390      0.59262        -0.202798     -0.115345     -1.133614
O       5.85237      5.72230     13.62275         0.010558      0.146955     -3.231301
O       5.78113      5.82960      4.90104        -0.324635     -0.326664     -0.607962
O       5.71734      5.78683      9.23610         0.135815      0.086883     -1.678677
O       5.74858      9.56185      0.60704         0.236894      0.101024     -3.844899
O       5.82547      9.60485     13.60855        -0.126443     -0.381202     -1.773833
O       5.70791      9.79639      4.97108        -0.394832     -0.131967     -1.581026
O       5.83910      9.47183      9.30117        -0.219003      0.395267     -1.225905
O       9.51006      1.94060      0.31381        -0.141348      0.273399      0.027471
O       9.63226      1.95091     13.61916        -0.258770     -0.380581     -1.383087
O       9.54865     13.27498      0.45373        -0.237305      0.050657      0.437021
O       9.58514     13.40546     13.62234        -0.155401      0.159259     -3.207614
O       9.56810      1.84292      5.03450         0.088405     -0.270547     -1.800433
O       9.75387     13.54587      4.89525        -0.445783     -0.137577     -1.075393
O       9.76487      2.19844      9.16247        -1.083843     -0.724013     -0.171058
O       9.78375     13.24001      9.16250        -0.391601      0.138471     -0.124495
O       9.59825      5.55257      0.64522        -0.158598      0.175741     -2.415806
O       9.57897      5.88073     13.61019        -0.308409     -0.446163      0.026358
O       9.58333      5.85345      4.78842         0.357804      0.050597      0.117399
O       9.48947      5.66055      9.30595         0.224122      0.283196     -2.895309
O       9.50307      9.76871      0.62299        -0.079926     -0.202886     -2.129903
O       9.65580      9.49953     13.62095        -0.434275      0.333927     -0.219389
O       9.62241      9.54566      4.77834         0.021427      0.048328      0.528215
O       9.54846      9.64220      9.28093         0.097536      0.258141     -1.927233
O       3.77624      1.98919      2.69714        -0.433123     -0.069052      0.590602
O       3.80162      1.77014     15.66799         0.194582      1.192823      0.632397
O       3.83666     13.43827      2.72262        -0.697721     -0.111021      0.274952
O       3.79451     13.48020     15.73657         1.652234     -0.066745      0.332969
O      15.27993      1.65012      2.58927         0.783023      0.952860      0.518538
O      15.35548      1.90057     15.84715        -1.500165     -0.113961      0.513062
O       0.01645     13.38301      2.45521         0.633743      0.477400      1.119637
O      15.35446     13.24816     15.59875        -0.656305      0.455216      0.703577
O       3.77327      1.76887      7.09630         0.930073      0.259821      0.192947
O       3.80146     13.40366      7.14659         1.208691      0.127445      0.240790
O      15.24278      2.01869      6.97989         0.871778      0.053791      0.570197
O      15.33506     13.42890      6.99156         0.175981     -0.064449      0.864177
O       3.77161      1.84783     11.23003        -0.235270      0.191475      0.771640
O       3.84296     13.45719     11.28881        -0.895576      0.204298      0.366291
O      15.22067      1.94106     11.30913         1.969272      0.276745      0.932501
O      15.25064     13.38357     11.39058         2.039406     -0.186661      0.054554
O       3.93586      5.66146      2.74732        -0.786950      0.077945      0.010071
O       3.90935      5.65849     15.66907        -0.726956      0.484166      0.720294
O       0.07768      5.78630      2.53002        -0.056672      0.230574      0.919413
O      15.33410      5.67803     15.81936         0.730251      0.291074      0.342266
O       3.83676      5.80014      6.99150         0.004293     -0.009002      0.630268
O       0.01888      5.68750      6.96574        -0.274869      0.349742      0.279375
O       3.76512      5.67964     11.38627         0.571329      0.464807      0.488735
O      15.29152      5.66971     11.44062         1.386938      0.330899      0.289358
O       3.85059      9.70131      2.57272        -0.146480     -0.085944      0.652418
O       3.92847      9.48051     15.83092        -0.252321      0.220011      0.071553
O       0.03249      9.48198      2.56162         0.774980      0.339543      0.655062
O      15.34645      9.73134     15.59880         0.591534     -0.442887      0.631373
O       3.78282      9.62376      7.24643         0.395113      0.154885      0.002537
O      15.34154      9.50573      7.03424         0.702641      0.059104      0.753341
O       3.87942      9.55052     11.32315        -0.011343     -0.125185      0.709525
O       0.00126      9.65067     11.41462         0.659853     -0.031715      0.529451
O       7.62294      1.91083      2.70890        -0.254192     -0.416820      0.114659
O       7.57902      2.04127     15.64036        -0.148704     -0.562295      0.329915
O       7.59955     13.46649      2.63402         1.174338      0.197081      0.601980
O       7.60282     13.48498     15.70648        -0.513509     -0.314158      0.465304
O       7.64068      1.89997      6.91153         0.282583      0.115474      1.100410
O       7.72571     13.30687      6.98706         0.159781      0.369617      0.394420
O       7.61193      1.86594     11.29376         1.220493      0.209998      0.515236
O       7.69988     13.43356     11.26425         1.307525     -0.048692      0.690490
O       7.78172      5.70014      2.79024        -1.815653      0.236672     -0.014022
O       7.64140      5.73408     15.76147         0.887680     -0.208943      0.480717
O       7.65539      5.79238      6.87473         0.186487      0.077722      0.785735
O       7.64311      5.68338     11.39435         0.155896      0.080573      0.430173
O       7.64238      9.53460      2.75296         0.471498      0.287111      0.175557
O       7.68238      9.57806     15.76786        -0.489174     -0.410072      0.514646
O       7.62722      9.61640      6.94561         1.037029      0.323213      0.554690
O       7.65949      9.63618     11.25630         0.458960     -0.007406      1.124427
O      11.41668      1.96551      2.53532         0.096185     -0.271412      0.404093
O      11.49918      1.91479     15.65297        -0.338416     -0.425690      0.668159
O      11.48672     13.29610      2.54523        -0.118961      0.181222      0.757547
O      11.38449     13.52270     15.61705         0.993184     -0.268381      0.728627
O      11.49467      1.96358      6.98794        -0.057567     -0.264341      0.739807
O      11.53934     13.50748      7.07091         0.559992     -0.589119      0.037212
O      11.44783      1.97182     11.22899         0.234824     -0.292170      1.335524
O      11.55830     13.43078     11.32200        -0.836049     -0.265354      0.414604
O      11.54036      5.75886      2.70254         0.650594     -0.377178      0.428801
O      11.48153      5.73694     15.74449        -0.380422     -0.171974      0.624809
O      11.49035      5.76513      6.91105         0.456287      0.373994      0.212413
O      11.53749      5.93774     11.33680        -0.672710     -0.311161      0.536139
O      11.51261      9.73499      2.63039         0.268846     -0.685655      0.579075
O      11.51062      9.56946     15.74112        -0.995147      0.216360      0.239840
O      11.52854      9.52423      6.97178        -0.198841      0.303962      0.460420
O      11.48190      9.64012     11.28237         0.538447     -0.449702      0.703394
O       1.82182      3.77917      2.82867         0.118633      0.090947     -0.129009
O       1.84335      3.77527     15.74547         0.751254      0.899918      0.686876
O       1.88467      0.00414      2.70292         0.755260     -0.603232      0.284263
O       1.89995      0.00522     15.75830        -0.349952     -1.226937      0.388030
O      13.49354      3.75910      2.49149         0.082547      0.817851      0.990258
O      13.36216      3.80821     15.66622        -0.023232     -0.749550      0.968652
O      13.33031     15.32926      2.46557        -0.156129     -1.111214      0.874003
O      13.35951     15.30112     15.73852         0.453071     -0.081895      0.603931
O       2.16667      3.81241      6.87038        -1.059040      0.978609      0.166415
O       1.91053      0.01658      6.95194        -0.689430     -0.188476      1.211715
O      13.39713      3.87747      6.97180        -0.015558      0.540179      0.183766
O      13.51102     15.34232      6.82301        -0.380544     -0.160857      1.245311
O       1.87843      3.80640     11.51114        -0.029619     -0.304583     -0.008988
O       1.79513      0.02201     11.35280         0.076808     -0.564129      0.214158
O      13.41169      3.90396     11.32238        -0.385241     -0.132536      0.891732
O      13.45459      0.06890     11.30305        -0.367707     -1.046458      0.268195
O       2.18334      7.70017      2.36669        -0.392634     -0.436560      1.570301
O       1.90043      7.66981     15.68162         0.128712     -0.295115      0.677316
O      13.47275      7.65975      2.50679        -0.450333      0.700543      0.885728
O      13.38205      7.65026     15.87166         0.468051      0.646715     -0.428927
O       2.03404      7.62932      7.10386        -0.850301     -0.037604      0.457727
O      13.46061      7.64911      6.93885         0.126568     -0.671847      0.574057
O       1.92415      7.65291     11.45813        -0.305464     -1.106733      0.308344
O      13.60769      7.64467     11.46037        -0.325257      1.060593      0.730918
O       2.00106     11.60354      2.62535        -0.680792     -0.692070      0.204593
O       1.96560     11.51224     15.51506         0.558054     -0.932964      1.057487
O      13.57360     11.46869      2.63199        -0.151390     -0.078024      0.806227
O      13.25440     11.53817     15.67512         0.444639     -0.244742      0.418068
O       1.84678     11.51106      6.96007         0.062447     -0.959275      0.957920
O      13.44044     11.52724      7.00397         0.039945     -1.147342      0.699683
O       2.04604     11.48869     11.19571        -0.624744      0.646095      0.841867
O      13.38917     11.47640     11.24313        -0.091043      0.411942      0.187942
O       5.81604      3.80218      2.66223        -0.126870      0.177775      0.427744
O       5.77401      3.85006     15.62838        -0.495156      0.682633      0.986217
O       5.52412     15.35537      2.56576         0.759002      1.205753      1.059908
O       5.77866      0.05350     15.50398        -0.011868     -0.021668      1.072751
O       5.74632      3.82089      7.08151        -0.300648      0.131619     -0.182557
O       5.91684     15.31528      7.00703        -0.544943     -0.849081      0.424352
O       5.66525      3.80518     11.28953         0.037890      0.120692      0.427894
O       5.71717     15.31813     11.42073         0.201980      0.931571      0.253861
O       5.84403      7.70646      2.58322        -0.547303     -0.841303      0.700275
O       5.84956      7.63888     15.78556        -0.286609      0.353629     -0.006988
O       5.74159      7.78600      6.93325        -0.306686     -1.207823      0.908733
O       5.79350      7.64523     11.32895        -0.157892     -0.141202      0.725046
O       5.85804     11.56931      2.64803        -0.425027     -0.530929     -0.049123
O       5.70502     11.51918     15.61540        -0.021818     -0.292661      0.655101
O       5.77404     11.51171      7.19844        -0.319340      0.225168      0.379901
O       5.75964     11.54098     11.38948        -0.055788     -0.505782      0.289376
O       9.60708      3.78629      2.65300        -0.303296     -0.354950      0.696327
O       9.56482      3.77631     15.56538        -0.171549      1.394723      0.622684
O       9.49427     15.34092      2.38582         0.417181     -0.097613      0.785342
O       9.41621     15.35822     15.68438         0.353322     -0.129674      0.482578
O       9.56498      3.85888      6.91314        -0.008724      0.876758      0.403337
O       9.65171     15.33428      7.15622        -0.532725     -0.268249      0.135459
O       9.71183      3.85534     11.27131        -0.766518      0.204702      1.225941
O       9.69658      0.00435     11.14118        -0.405240     -0.377647      0.465448
O       9.72272      7.65086      2.45404        -0.259354      0.610447      0.732012
O       9.62983      7.62942     15.71524        -0.645504      0.572084      1.033172
O       9.59129      7.72592      7.07036        -0.137188     -0.301994      0.102527
O       9.57969      7.69658     11.32218        -0.443555      0.184801      0.550591
O       9.59279     11.46795      2.71515        -0.593217      0.815983      0.651980
O       9.38449     11.49932     15.60299         0.628996      0.058861      0.592635
O       9.65564     11.48004      6.89142         0.138932     -0.415783      0.379023
O       9.60110     11.50905     11.44266         0.025395      0.779804      0.256135
