  # total energy = -7878.06076762 
CRSYTAL
PRIMVEC
    15.2000000000000000    0.0000000000000000    0.0000000000000000
     0.0000000000000000   15.2000000000000000    0.0000000000000000
     0.0000000000000000    0.0000000000000000    17.000000000000000
PRESSURE
7.9781 7.65669 3.06641 0.099298 -0.16699 -0.026563
PRIMCOORD
320 1
Pb       3.92838      3.72219      4.19233        -0.568876     -0.113731      0.177721
Pb       3.56898      3.65338     16.98081        -0.213488      0.142229     -0.499488
Pb       3.99385     14.94560      4.15198        -0.860057      0.690365      0.830029
Pb       3.70526     15.14210     16.98955        -0.013794      0.134317     -0.470037
Pb      15.17269      3.65863      4.28181        -0.291580     -0.154548     -0.368602
Pb      15.04624      3.85852     16.95531         1.368422     -0.093944      0.691802
Pb      15.18163     14.93716      4.09749        -0.519877      0.853361      0.882139
Pb      15.11922      0.04445      0.03345         0.279677     -0.467743     -0.018397
Pb       3.51389      3.80166      8.54115         0.504185     -0.099932      0.250553
Pb       3.77098      0.17184      8.19286        -0.261781     -0.869325      1.577430
Pb      15.03969      3.82651      8.33631         0.604255     -0.132759      0.400058
Pb       0.18825      0.11241      8.36726        -0.367135     -0.378045      0.036901
Pb       3.74922      3.76699     12.84070        -0.077908      0.343618     -0.587490
Pb       3.79896     15.15471     12.67001        -0.084043      0.179110      0.227927
Pb      15.16439      3.74103     12.82079        -0.315836      0.442654     -0.605190
Pb      15.07281     15.08554     12.59723        -0.044524      0.812500      0.344384
Pb       3.88532      7.44030      4.14297        -0.909774      0.881774      0.239580
Pb       3.69518      7.47372      0.03433        -0.091146      0.738553     -0.577750
Pb       0.00808      7.35337      4.22684         0.349828      0.450300     -0.130383
Pb      15.18854      7.57105      0.20266         0.285598     -0.118449     -0.396796
Pb       3.74620      7.49111      8.58465        -0.324945      0.373474     -0.155986
Pb       0.05319      7.69546      8.49507         0.577858     -0.697124      0.034814
Pb       3.79007      7.76759     12.91286        -0.160148     -0.093080     -0.576632
Pb      15.17524      7.77373     12.90954        -0.361581     -0.299961     -1.160815
Pb       4.06585     11.32615      4.14092        -1.005027      0.169443      0.596538
Pb       3.62185     11.38019     16.67435         0.674333     -0.198318      1.206469
Pb       0.04217     11.24330      4.25109         0.079420      0.512981     -0.269568
Pb      15.06673     11.36928      0.04809         0.427412      0.338288     -0.429277
Pb       3.82107     11.37359      8.35104        -0.148363     -0.231969      0.637677
Pb       0.06984     11.35527      8.43838         0.420174      0.573431      0.057559
Pb       3.90112     11.51248     12.65281        -0.031816     -0.146691     -0.227393
Pb       0.01837     11.62116     12.61160        -0.402891     -0.876306      0.212378
Pb       7.63644      3.87079      4.31753         0.261530     -0.467335     -0.342507
Pb       7.59924      3.78060     16.95210        -0.094068     -0.001123     -0.555847
Pb       7.58064      0.05657      4.24203         0.042311      0.071058      0.525516
Pb       7.49710      0.01638     16.95759        -0.189831     -0.185467     -0.765723
Pb       7.36138      3.79822      8.62621         0.314750      0.393154     -0.206806
Pb       7.51071      0.05128      8.58005         0.149319     -0.251847     -0.235264
Pb       7.60152      3.66857     12.67711        -0.169370      0.229894     -0.311156
Pb       7.59473     15.16601     12.71505         0.076168     -0.295772      0.033828
Pb       7.36723      7.55074      4.24893         1.040596      0.153498      0.137909
Pb       7.72490      7.38241     16.98915        -0.414108      1.106536      0.020793
Pb       7.58730      7.51419      8.63146        -0.185200     -0.116524     -0.003329
Pb       7.75467      7.60096     12.83088        -0.538136      0.163885     -0.923653
Pb       7.68283     11.47119      4.17747        -0.406607      0.049775      0.381465
Pb       7.49038     11.28814     16.97637         0.125837      0.216458     -0.042079
Pb       7.64271     11.23361      8.43288        -0.548204      0.637044      1.026848
Pb       7.70131     11.42804     12.82942        -0.566199     -0.139867     -0.702993
Pb      11.37568      3.77067      4.36733        -0.438949     -0.303012     -0.077191
Pb      11.39333      3.95542     16.94511        -0.659246     -0.530194      0.240492
Pb      11.27130     15.19303      4.28805         0.347536      0.028722      0.095147
Pb      11.25868      0.06599      0.02714         0.611048     -0.009940     -0.624292
Pb      11.33145      3.76106      8.49015        -0.108172     -0.044879     -0.358248
Pb      11.45366     15.13279      8.67692         0.000961      0.437001     -0.854940
Pb      11.47795      3.79241     12.64037        -0.287464      0.166642      0.202213
Pb      11.31678      0.01638     12.75525         0.914476     -0.196734      0.025909
Pb      11.33558      7.41726      4.34763        -0.253044      0.618060     -0.453943
Pb      11.41476      7.60578      0.12168        -0.114854     -0.037610     -0.600948
Pb      11.51100      7.68928      8.40943        -1.040257     -0.473675      0.531009
Pb      11.48374      7.70485     12.69060         0.146344     -0.647399      0.458111
Pb      11.42025     11.51489      4.28841         0.018606     -0.101199     -0.402857
Pb      11.33553     11.20246      0.11752        -0.125100      0.495815     -0.012727
Pb      11.40022     11.30397      8.45377         0.262223      0.229214     -0.136733
Pb      11.49428     11.36215     12.93434         0.604056      0.358014     -0.511727
Ti       1.89885      1.82284      2.28218        -0.446671      0.468395     -0.970152
Ti       1.75858      1.85961     14.88966         1.000618      0.462669      2.190022
Ti       1.86811     13.22324      2.23640         0.605204     -0.082764     -0.908652
Ti       1.78042     13.31248     14.95064        -0.047339      0.865648      0.658092
Ti      13.22686      1.90069      2.20441         0.177641     -0.814880      0.667674
Ti      13.29530      1.94140     15.04311        -0.980087     -1.088137     -0.897150
Ti      13.22604     13.24981      2.09948        -0.074527      0.325037      0.634994
Ti      13.24534     13.38498     15.01917         0.111312     -0.541395     -0.510499
Ti       1.88485      1.90650      6.25161        -0.103111     -0.410036      0.615715
Ti       2.02148     13.27220      6.41038        -1.944654      0.005154     -0.207932
Ti      13.20671      1.80889      6.48328         0.408191      0.715430      0.230497
Ti      13.32597     13.26486      6.60328         1.171407      1.023436     -1.484503
Ti       1.82626      1.94707     10.81482        -0.357733      0.275852     -0.748513
Ti       1.97565     13.35971     10.59758        -0.019265     -0.098383     -0.737984
Ti      13.24732      1.95674     10.65145         1.256371     -0.879985      0.829031
Ti      13.28804     13.29669     10.58205         0.130007      0.090246      1.193493
Ti       1.90074      5.64369      2.27317        -0.905395     -0.045225     -0.946757
Ti       1.76569      5.80938     14.90520         0.641621     -2.067890     -0.598761
Ti      13.22293      5.63157      2.34554        -0.136167     -0.280126     -0.854575
Ti      13.27757      5.71904     14.99784        -0.566164      1.052605     -1.075194
Ti       1.90881      5.61809      6.44416        -1.241540      1.109656     -0.321907
Ti      13.18622      5.72585      6.54161         1.297955     -1.253968     -0.951681
Ti       1.83718      5.71086     10.85510        -0.578923      0.217183     -0.395249
Ti      13.30170      5.73499     10.65812         0.358574     -0.110017      1.290067
Ti       1.95878      9.54487      2.20808        -0.256644     -1.019197     -0.776832
Ti       1.80307      9.55118     14.89657         1.070132     -0.680470      0.779308
Ti      13.31821      9.43418      2.26827        -0.558335      0.201478     -0.128402
Ti      13.32998      9.49582     15.05557        -0.313863     -0.116612     -1.403909
Ti       1.95801      9.41500      6.39572         0.620506      0.120496      0.197123
Ti      13.37148      9.50145      6.43890        -0.990803     -0.130613     -0.425436
Ti       1.94032      9.56937     10.77377        -0.752372     -0.691057      0.008560
Ti      13.23943      9.51272     10.66483         2.076618      0.616867      0.988647
Ti       5.68304      1.94332      2.23052         0.087179      0.009708      0.055414
Ti       5.64510      1.96806     14.90976        -0.082957     -0.458552      0.334346
Ti       5.71744     13.36478      2.05906        -1.071488     -0.858767     -0.721805
Ti       5.67714     13.30261     14.88618        -0.036262      0.480842      0.433912
Ti       5.72365      1.94043      6.50842        -1.443040     -0.400692     -0.642606
Ti       5.79369     13.26378      6.59340        -0.203708      0.018101     -0.642577
Ti       5.63702      1.83553     10.75136        -0.190897      1.202183      0.595242
Ti       5.82752     13.29258     10.63079        -0.420133     -0.228324      0.143822
Ti       5.66202      5.68322      2.11493         0.436431      0.135158      2.971770
Ti       5.57689      5.77591     14.83504         0.530006     -0.837683      0.149552
Ti       5.60646      5.74301      6.50236         0.752677     -1.201835      0.151405
Ti       5.61864      5.74642     10.75486         0.149552     -0.888661      0.476245
Ti       5.72642      9.50362      2.14043        -1.122590     -0.202128     -1.283489
Ti       5.69480      9.47637     14.99266        -0.638922     -0.128727      0.081827
Ti       5.70889      9.41403      6.51997        -0.986327      0.374056      0.703423
Ti       5.69917      9.47418     10.82205         0.994461      1.129683     -0.417442
Ti       9.43195      1.84050      2.16926        -0.543945      1.777738      1.899062
Ti       9.46833      1.88867     14.95730         0.291301      0.430156     -0.357685
Ti       9.44036     13.37532      2.17814         0.753334     -0.927396     -0.729975
Ti       9.51055     13.28211     14.96466        -0.622810      0.536925      0.274064
Ti       9.39814      1.84763      6.61844         0.866640      0.970788     -0.632894
Ti       9.54069     13.30496      6.61163         0.300776      0.559962     -1.237260
Ti       9.52617      1.76022     10.70399        -0.744201      1.174950      0.274637
Ti       9.64379     13.18523     10.64694        -1.005059      1.140440      1.235868
Ti       9.38643      5.70205      2.30090         1.057629     -0.753760      0.557675
Ti       9.39544      5.71020     14.82132         1.217539     -0.470013      2.300280
Ti       9.41682      5.70420      6.60596        -0.413045     -0.758318     -0.356942
Ti       9.47572      5.67275     10.71454        -0.059298     -0.010247      0.105916
Ti       9.48447      9.51218      2.44816         0.544683     -0.731432     -1.260200
Ti       9.48676      9.53858     15.08149         0.236637     -0.702266     -0.178424
Ti       9.46727      9.48877      6.51359        -0.104132     -0.320401     -0.738064
Ti       9.56167      9.51230     10.72518        -1.512083     -1.199041      0.880250
O       1.94301      1.93062      0.40899         0.055004     -0.446815      1.089029
O       1.69717      1.86183     13.16804         0.387499      0.014226     -1.109966
O       1.86926     13.16955      0.41346         0.004581      0.120617      0.504397
O       1.74573     13.39344     13.21437         0.196425     -0.181848     -1.486369
O      13.16585      1.98109      0.42293         0.254350     -0.099571      0.452820
O      13.29159      1.89214     13.23214        -0.120222      0.179800      0.600617
O      13.26160     13.30731      0.31691        -0.223101     -0.668656      0.538150
O      13.30173     13.43763     13.20412        -0.123249     -0.332620      0.242106
O       1.85194      1.93599      4.50447         0.244623      0.034830     -0.455698
O       1.96085     13.36166      4.62556        -0.502147     -0.553432     -0.355319
O      13.29249      1.85600      4.73028        -0.334398     -0.144593     -0.606867
O      13.42542     13.36578      4.74477        -0.591826     -0.856602      0.573760
O       1.72003      2.06478      9.00532         0.722865     -0.217841      0.117122
O       1.88772     13.29842      8.81334         0.313798      0.121370      0.665168
O      13.21663      1.93785      8.89897         0.170675     -0.058365     -0.868443
O      13.32829     13.21213      8.82452        -0.452412      0.170740     -0.280985
O       1.75275      5.78495      0.45687         0.709147     -0.336501      0.178630
O       1.82121      5.74033     13.07940        -0.077245     -0.107798      1.025992
O      13.26125      5.61220      0.50724        -0.497640     -0.096924      0.306002
O      13.39751      5.76932     13.21262        -0.445919     -0.265277      0.248079
O       1.90648      5.70171      4.62484        -0.065415      0.103213     -0.059867
O      13.17948      5.67581      4.69865         0.134482      0.454109     -0.440250
O       1.83414      5.66391      9.00063        -0.020145      0.035485     -0.221124
O      13.21511      5.71247      8.90571         0.142790      0.333750     -1.299798
O       1.92342      9.51253      0.37172        -0.221551      0.108173      0.198391
O       1.90668      9.60339     13.13434        -0.082933     -0.387055     -0.634886
O      13.25294      9.47474      0.40083         0.032662      0.188623      0.297728
O      13.22224      9.39070     13.17761         0.127476      0.443841      1.146339
O       1.96771      9.39602      4.64303        -0.545405     -0.067858     -0.191785
O      13.24755      9.45036      4.65087         0.676608      0.054746      0.321424
O       1.94443      9.46909      8.97578        -0.198756     -0.097673      0.065136
O      13.24705      9.52562      8.85967         0.013200     -0.275774      0.198057
O       5.63592      1.97015      0.47752         0.195828      0.039315     -1.156118
O       5.70961      1.78539     13.15016         0.020411      0.560226     -0.167023
O       5.67506     13.37809      0.27415        -0.128899     -0.331512      0.706085
O       5.84214     13.30716     13.07774        -0.535441     -0.219540      0.601400
O       5.65336      1.79196      4.72515         0.281151      0.476522     -0.298798
O       5.75864     13.28164      4.77828        -0.090753      0.041974     -0.403441
O       5.55665      1.83422      8.97666         0.449251      0.044072     -0.558513
O       5.65209     13.30100      8.82682         0.585452      0.008892      0.003069
O       5.62675      5.72680      0.44482         0.252268     -0.097943     -2.723632
O       5.73734      5.77043     13.05537        -0.322969      0.116235     -0.159950
O       5.52925      5.73064      4.67952         0.565991     -0.037041      0.505109
O       5.67031      5.71491      8.95751        -0.204744      0.049951     -0.345154
O       5.59323      9.43341      0.35969         0.463909      0.159817      0.310148
O       5.61836      9.58240     13.20092         0.262189     -0.201901     -0.480454
O       5.78611      9.42068      4.79020        -0.302615      0.026657     -1.820606
O       5.76063      9.58437      9.04630        -0.308274     -0.274620     -0.677321
O       9.42077      1.82418      0.43421        -0.158109     -0.095872     -1.431894
O       9.53591      1.91358     13.16289        -0.301362      0.163100     -0.020778
O       9.55653     13.47396      0.37752        -0.480774     -0.348920      0.606852
O       9.48244     13.17062     13.17364         0.099995     -0.069288     -0.051695
O       9.35329      1.77499      4.80631        -0.041715      0.372846      0.301178
O       9.52620     13.32369      4.75687        -0.073565     -0.348906      0.338137
O       9.56718      1.76943      8.93000        -0.279762      0.064715     -0.001888
O       9.64363     13.34683      8.91760        -0.045253      0.018601     -1.517115
O       9.45009      5.58475      0.55812        -0.130271      0.599051     -1.430600
O       9.36895      5.64985     13.10017         0.019375      0.089320     -0.873871
O       9.39793      5.53872      4.80787         0.122992      0.407679     -0.396036
O       9.41778      5.87365      8.94293         0.450220     -0.415757     -0.829927
O       9.48073      9.50758      0.61086         0.427365      0.137023     -0.429644
O       9.62342      9.69472     13.31162        -0.398047     -0.650858     -0.536494
O       9.35092      9.57794      4.73473         0.206230      0.156010     -0.531648
O       9.44642      9.35678      8.99161         0.261933      0.177057     -1.335835
O       3.81902      1.86013      2.49488        -0.848022      0.311913      0.582276
O       3.77000      2.09787     15.18152        -0.592126     -0.422275      0.181409
O       3.81018     13.26330      2.50966        -0.033804     -0.084632      0.041055
O       3.68319     13.24926     15.15811         0.783234     -0.490105      0.167001
O      15.16326      1.90527      2.61136        -0.739741     -0.101514     -0.556024
O      15.15923      1.72001     15.48558        -0.635393      0.757712     -0.630511
O      15.14670     13.12691      2.47975        -0.140426      0.075484      0.174890
O      15.10716     13.35905     15.34147         0.937860      0.486080      0.426367
O       3.74024      1.91628      6.71029         0.227938      0.313416      0.182474
O       3.80645     13.42893      6.66717         0.924446     -0.625850      0.600028
O       0.05952      1.92208      6.72682        -1.105647      0.175842      0.194666
O       0.05573     13.27603      6.92851        -0.202553      0.071186     -0.454877
O       3.78230      2.02413     11.19102        -0.276741     -0.169182     -0.008445
O       3.84856     13.19883     10.89108        -0.323371      0.452066      0.730564
O      15.14990      1.83802     11.12062        -0.731891     -0.395001     -0.158197
O      15.17100     13.35679     10.96265         0.463544      0.121003      0.012394
O       3.78711      5.64726      2.51382        -0.139393      0.428937      0.023572
O       3.72292      5.65671     15.18674        -0.031256     -0.007029      0.250822
O      15.14088      5.59743      2.48046        -0.375134      0.224597      1.065424
O      15.12732      5.75829     15.42046         0.210000      0.193140     -0.004902
O       3.75224      5.67905      6.82845        -0.043357      0.068524      0.316152
O      15.13308      5.67575      6.66467         0.400803      0.354330      0.462081
O       3.68945      5.40081     10.92996         1.352949      0.443093      0.584535
O      15.13498      5.72835     11.05363        -0.063538      0.380264      0.023238
O       3.75362      9.45678      2.52956         1.709540     -0.128068      0.384363
O       3.74898      9.42343     15.25686        -0.419878      0.373454     -0.070429
O       0.02709      9.46620      2.44359        -1.293093      0.292343      0.696445
O      15.19897      9.22000     15.24677        -0.355099      0.492772      0.343735
O       3.79560      9.36224      6.80190        -0.217180      0.245981      0.427146
O       0.04509      9.48076      6.76263        -0.695963     -0.306608      0.108359
O       3.84029      9.64867     11.13026        -0.852885      0.265299      0.193741
O      15.16541      9.56914     11.09398         0.048187     -0.298352     -0.284391
O       7.52565      1.81989      2.66288         0.283494     -0.039413     -0.262828
O       7.51948      1.80865     15.32767         0.393025      0.160361      0.208580
O       7.53430     13.25345      2.40555         0.683883      0.139497      0.445706
O       7.51971     13.38250     15.28159         0.799095     -0.188068      0.139985
O       7.50759      1.95722      6.93146         0.870852     -0.491816      0.527245
O       7.68619     13.22318      6.77617        -1.322444      0.053147      0.669929
O       7.56869      1.73444     11.02503         0.752847      0.114984     -0.095417
O       7.69883     13.39788     10.97380        -0.136409      0.246138     -0.049579
O       7.56709      5.69877      2.64763        -1.390922      0.282778      0.021831
O       7.56230      5.81417     15.30650         0.096672     -0.058351     -0.080811
O       7.49623      5.75735      6.85341         0.416542     -0.389558      0.206933
O       7.56634      5.85911     10.87911        -0.252768      0.074269      0.791149
O       7.52691      9.50963      2.54230         0.855461      0.047817      0.454031
O       7.56920      9.40941     15.35650         0.804168      0.162156      0.072583
O       7.50315      9.56804      6.88368         2.062020     -0.422545      0.167651
O       7.61372      9.48065     11.16658         0.683314     -0.489419      0.310009
O      11.21292      1.87421      2.66420         1.727585     -0.344196     -0.200295
O      11.34107      1.93717     15.36261         0.088765      0.357617     -0.003853
O      11.33230     13.28010      2.56934         0.532456      0.126558      0.034064
O      11.35526     13.27389     15.24755        -0.209220     -0.529193      0.262276
O      11.33415      1.87164      6.84550         0.240090      0.116090     -0.023338
O      11.44751     13.34200      6.77985        -0.302661     -0.327194      0.458632
O      11.39015      1.98510     11.10015        -0.156797      0.047813     -0.027251
O      11.44936     13.30717     11.09213        -0.337090     -0.611884     -0.025966
O      11.27472      5.61087      2.69938         1.012141      0.001211      0.064543
O      11.33458      5.55751     15.31471        -0.042346      0.480440     -0.287636
O      11.34933      5.59315      6.80048        -0.605584      0.784897      0.451118
O      11.40526      5.63287     11.09021        -0.024973      0.080565      0.010738
O      11.42111      9.40838      2.67414        -0.710690      0.363560     -0.023683
O      11.45253      9.52756     15.39663        -1.118956      0.588016      0.389017
O      11.35688      9.54845      6.79071         0.519341     -0.152571      0.203241
O      11.41998      9.58243     11.17786        -0.541092     -0.309135     -0.425467
O       1.86059      3.74997      2.48187         0.403683      0.472339      0.362536
O       1.69582      3.77844     15.30151         0.126470      0.201867     -0.160794
O       1.80453     15.12187      2.56242         0.399593     -0.072102     -0.564455
O       1.89699      0.01324     15.38777         0.234395     -0.196928     -0.051992
O      13.14593      3.67907      2.76955         0.350779      1.032488     -0.487274
O      13.40747      3.79848     15.33789        -0.576021      0.003308     -0.145069
O      13.28392     15.13165      2.45191        -0.160252      0.341608      0.068052
O      13.16238      0.01645     15.42041         0.146875      0.515682      0.169253
O       1.89464      3.79222      6.77401        -0.122046     -0.101711     -0.040693
O       1.91743      0.02479      6.70787        -0.498625      0.293179      0.085965
O      13.21058      3.82686      6.76688         0.132979     -0.844834      0.402526
O      13.30744      0.00938      6.86890         0.182002     -0.522110      0.370613
O       1.66526      3.77191     11.21679         0.714908      0.446000      0.160109
O       1.99099      0.05664     11.04719        -0.134989     -1.214024     -0.103252
O      13.38266      3.80143     10.92440        -0.429553      0.402717      0.711690
O      13.12197      0.00482     11.00024         0.455109      0.020576     -0.233476
O       1.81035      7.62204      2.46267         0.175838     -1.159924      0.569131
O       1.87816      7.55177     15.27780         0.337256      1.183289      0.112646
O      13.19647      7.52231      2.41627         0.390098     -0.182793      0.772098
O      13.16081      7.58100     15.29422        -0.099548     -0.257687      0.666575
O       1.86741      7.51728      6.95153        -0.116357      0.384168     -0.387952
O      13.14229      7.59852      6.82077         0.811934      0.779170     -0.186096
O       1.98080      7.61773     11.16826         0.060544      0.436498     -0.306281
O      13.30588      7.65063     11.08620        -0.580260     -0.027603     -0.405771
O       1.91247     11.35376      2.69498        -0.081764      0.626996      0.013014
O       1.74004     11.37686     15.18024        -0.197290      0.244927      0.537821
O      13.16597     11.31807      2.51171         0.340989      0.825764      0.064183
O      13.54129     11.39839     15.16806        -0.963275     -0.571712      0.516597
O       1.92112     11.36900      6.72956         0.181568     -0.418265      0.059322
O      13.33594     11.36384      6.87341        -0.212952     -0.384560     -0.370657
O       1.85298     11.45323     10.97386         0.016519      0.540271      0.400034
O      13.24351     11.44637     11.11098         0.238631     -0.380991     -0.239801
O       5.67839      3.85639      2.64453         0.270414     -0.792729     -0.232138
O       5.80003      3.88962     15.10511         0.016440     -0.802525      0.444180
O       5.58757      0.00822      2.48757         0.858525     -0.731451     -0.145205
O       5.48105     15.14570     15.29505         0.335754      0.973702     -0.031783
O       5.66676      3.76898      6.87076        -0.145586      1.024341     -0.026579
O       5.66482      0.00411      6.89807         0.856529     -0.089508     -0.191119
O       5.83063      3.79703     11.01944         0.078091     -0.246186      0.272356
O       5.65373      0.00387     11.24246        -0.128270     -0.828010     -0.982871
O       5.70722      7.61616      2.59731        -0.372053     -0.657440     -0.191821
O       5.64705      7.61112     15.24154        -0.147103     -0.617998      0.230164
O       5.66944      7.54736      6.90868        -0.079895      0.379146      0.020362
O       5.46752      7.65442     11.06591         0.163231     -1.187958      0.125922
O       5.62528     11.37619      2.49770         0.633542      0.540636     -0.163072
O       5.77525     11.34789     15.32170        -0.443464      1.011433     -0.128798
O       5.56374     11.33958      6.77461         0.309747      0.831674      0.278714
O       5.87101     11.48636     11.06264        -0.393571     -0.399357      0.327267
O       9.30675      3.75523      2.52078         0.067013     -0.442122      0.532600
O       9.35152      3.83880     15.30358        -0.173365     -0.295499      0.011684
O       9.43361     15.17089      2.72380        -0.169238     -0.158170     -0.583620
O       9.47596      0.01569     15.15204         0.168372     -0.475622      0.618050
O       9.44713      3.80253      6.94527        -0.299791     -0.245511      0.315698
O       9.43371      0.02310      6.88516        -0.136803     -1.150300      0.376215
O       9.39555      3.75801     11.00586        -0.008759      0.027130      0.027418
O       9.67143     15.12424     11.06513        -0.424809      0.688822      0.009609
O       9.51187      7.59334      2.62892        -0.467618     -0.102387      0.396143
O       9.53424      7.63944     15.44597         0.142790     -0.885842     -0.469362
O       9.48829      7.61024      6.69547         0.075465      0.245860      0.571308
O       9.53650      7.54844     11.18256         0.206848      1.239988      0.168990
O       9.49838     11.42612      2.56150        -0.078658      0.430399      0.402683
O       9.40001     11.38978     15.37788         0.029085      0.425434      0.646676
O       9.54583     11.39397      6.94590        -0.153996     -0.135546     -0.052833
O       9.47653     11.35941     10.83870         0.024704     -0.091577      0.681126
