  # total energy = -7885.00042093 
CRSYTAL
PRIMVEC
    15.3600000000000000    0.0000000000000000    0.0000000000000000
     0.0000000000000000   15.3600000000000000    0.0000000000000000
     0.0000000000000000    0.0000000000000000    17.440000000000000
PRESSURE
1.26256 0.797473 -0.967457 -0.175252 -0.27811 0.005009
PRIMCOORD
320 1
Pb       3.86872      3.77328      4.29076        -0.218833     -0.206109     -0.392766
Pb       3.74202      3.82800     17.42806        -0.066617      0.025839      0.003902
Pb       3.82020     15.29597      4.31472        -0.148398      0.252814     -0.460474
Pb       3.78415     15.25790     17.37339         0.032429      0.355745      0.294591
Pb       0.03054      3.80168      4.27299        -0.073125     -0.113416      0.234915
Pb      15.28795      3.79299     17.34021         0.615516      0.036053      0.358111
Pb      15.35613      0.00965      4.35336         0.100586      0.219134     -0.152292
Pb       0.11238      0.01098     17.36632        -0.507845     -0.166912      0.159102
Pb       3.85325      3.79289      8.71118        -0.110753      0.334340     -0.200020
Pb       3.83340      0.01106      8.51974        -0.076902     -0.274835      0.676023
Pb       0.11944      3.85067      8.73268        -0.327504     -0.022581     -0.362196
Pb      15.32518     15.29196      8.69785        -0.057603      0.557487     -0.105197
Pb       3.83997      3.85982     13.09495         0.178397      0.211041     -0.076390
Pb       3.89548      0.10987     13.06099        -0.159165     -0.193790     -0.207182
Pb       0.02926      3.85308     13.01180        -0.282927     -0.028376     -0.299399
Pb      15.32506     15.29324     13.10162         0.005692      0.176096     -0.600378
Pb       3.79703      7.65235      4.35936         0.078515     -0.368048     -0.160751
Pb       3.89273      7.65379     17.34886        -0.643779     -0.074484      0.154968
Pb      15.25765      7.70807      4.31001        -0.180509     -0.349487      0.334227
Pb       0.00684      7.54912      0.01533         0.491595      0.041004     -0.317316
Pb       3.72241      7.73507      8.59597         0.104814     -0.465224      0.669013
Pb      15.35229      7.72112      8.63339        -0.167082     -0.089455      0.096438
Pb       3.88441      7.67511     12.98769        -0.608889     -0.065656      0.343132
Pb      15.26717      7.63543     13.01833         0.495334      0.104233     -0.460140
Pb       3.93776     11.48064      4.39075        -0.087848      0.477764     -0.216109
Pb       3.69256     11.62145     17.41366         0.415174     -0.710491     -0.021175
Pb      15.24589     11.39597      4.42666         0.135725      0.181018     -0.113422
Pb      15.35748     11.50125     17.43515         0.122865     -0.010492     -0.257343
Pb       3.90438     11.44823      8.63371        -0.525485      0.506277      0.324447
Pb      15.33305     11.60307      8.69262         0.310068     -0.666152      0.158851
Pb       3.78440     11.49609     13.06165        -0.049605     -0.164720     -0.373008
Pb      15.33360     11.51168     12.97015         0.033959     -0.419770     -0.426900
Pb       7.62630      3.86693      4.25945        -0.184406     -0.506107     -0.167121
Pb       7.57678      3.76177      0.06479         0.202196      0.508375     -0.468566
Pb       7.61570     15.23601      4.40814         0.288187      0.270553     -0.477443
Pb       7.79005     15.32601     17.43150        -0.436950     -0.187769      0.118219
Pb       7.66214      3.87058      8.62276         0.225424      0.321431     -0.318826
Pb       7.65284      0.09800      8.73251         0.268765     -0.529501     -0.405119
Pb       7.67277      3.79551     12.94316        -0.001215      0.261457      0.578850
Pb       7.61943     15.31681     13.06469         0.093211     -0.301708     -0.294553
Pb       7.73650      7.71066      4.38146        -0.389538      0.050140      0.066084
Pb       7.59417      7.73788     17.37181         0.089313     -0.826728      0.190037
Pb       7.76849      7.53867      8.71660        -0.101736      0.264513     -0.533378
Pb       7.75881      7.72943     13.09514        -0.484707     -0.436526     -0.181602
Pb       7.64643     11.50364      4.34544        -0.266145     -0.256270     -0.187819
Pb       7.66708     11.41871     17.37958        -0.232115      0.312613     -0.176899
Pb       7.64520     11.58546      8.68382         0.390240     -0.456037     -0.063814
Pb       7.57228     11.45125     12.98538        -0.055650      0.560616      0.096954
Pb      11.47002      3.90976      4.30007         0.425996     -0.546131     -0.336768
Pb      11.51575      3.83548     17.42444        -0.313417     -0.361169     -0.327221
Pb      11.56608     15.30892      4.44428        -0.174044      0.087598     -0.661333
Pb      11.49068     15.35997      0.08203         0.367940      0.223678     -0.680779
Pb      11.50905      3.70513      8.66883        -0.147049      0.345734     -0.270004
Pb      11.51766      0.10471      8.73111         0.073628     -0.409417     -0.591105
Pb      11.52313      3.80094     12.97347        -0.103104      0.069696     -0.024198
Pb      11.53157      0.00844     13.08414        -0.432830     -0.517876     -0.418155
Pb      11.49593      7.60323      4.39058         0.314698      0.511645     -0.501695
Pb      11.50373      7.74766     17.35817        -0.245787     -0.615912      0.134411
Pb      11.53407      7.69240      8.66868        -0.403732     -0.028039     -0.263884
Pb      11.54384      7.59503     13.14842        -0.061851      0.272374     -0.437702
Pb      11.48203     11.57206      4.25298         0.181607     -0.326532      0.105258
Pb      11.50157     11.48493     17.41249        -0.231134      0.140292     -0.356404
Pb      11.54955     11.51235      8.59977        -0.667901      0.039539      0.410838
Pb      11.54007     11.54693     13.10806        -0.221044      0.208749     -0.525081
Ti       1.89269      1.86539      2.32094         0.162173      0.488464      0.098887
Ti       1.93081      1.87116     15.34932        -0.095383      0.398665     -0.711249
Ti       1.86828     13.35154      2.41450         1.068275      0.821355     -0.018668
Ti       1.90314     13.36021     15.31143        -0.210539      0.364041     -0.195395
Ti      13.36096      1.86280      2.33512         0.909687      0.178945     -0.072374
Ti      13.47191      1.86495     15.37425        -1.023859     -0.562598      1.201852
Ti      13.47188     13.39165      2.30937        -0.157387      0.721103     -0.117223
Ti      13.40253     13.39782     15.46043        -0.281963      1.041878     -0.676619
Ti       1.89082      1.92887      6.75267        -0.850677      0.599660     -1.901102
Ti       1.88423     13.46561      6.69332         0.183401     -0.480340     -0.471262
Ti      13.40535      1.91562      6.67794         0.662525      0.188183      1.322382
Ti      13.46107     13.40023      6.63167        -2.011126      0.683246      0.153872
Ti       1.92302      1.88115     11.06649        -0.526920     -0.273814     -0.540979
Ti       1.88334     13.44440     11.06453         0.045710     -0.388558     -1.230646
Ti      13.42956      1.89462     11.02017         0.188412      0.106418     -0.959655
Ti      13.39073     13.44289     10.90312        -0.387633     -0.557797      0.297875
Ti       1.90353      5.76679      2.36038        -0.011447     -1.317563     -1.477971
Ti       1.91730      5.68969     15.34410        -0.062353      0.343491      0.568275
Ti      13.45710      5.72111      2.31432        -0.257327      0.001388      0.078110
Ti      13.43491      5.68555     15.44333        -0.286817      0.522118      0.040524
Ti       1.91918      5.77373      6.66167        -1.316006     -0.511107      0.188990
Ti      13.40381      5.66611      6.69023         0.905207      0.877461     -0.375996
Ti       1.85499      5.70651     11.04612         0.403858      1.131432     -0.660714
Ti      13.34713      5.78385     10.90997         0.965369     -0.542925      1.908776
Ti       1.82257      9.55988      2.39260         0.400203      0.088513     -0.608329
Ti       1.86447      9.52539     15.36477         0.966182     -0.359221     -1.039453
Ti      13.33042      9.59009      2.26447         0.317894     -0.446788      0.650124
Ti      13.44387      9.57970     15.46349        -0.194172     -0.495281     -0.663395
Ti       1.87913      9.59936      6.64967        -1.465429      0.688993      0.134011
Ti      13.36523      9.55335      6.66621         0.580065     -0.167369     -0.864277
Ti       1.86422      9.54515     11.05867        -0.312802      0.062469     -0.088811
Ti      13.31756      9.60216     10.98133         1.211305     -0.200730      0.417578
Ti       5.76687      1.87225      2.21486        -0.754144      0.345414      1.605573
Ti       5.73015      1.85735     15.45447        -0.384124      1.042640     -0.974092
Ti       5.80963     13.41864      2.25125        -1.436914     -0.129494      0.167045
Ti       5.75079     13.47182     15.41376         0.577801     -0.841862     -0.836465
Ti       5.76415      1.88875      6.65235         0.249579      0.124555     -0.738144
Ti       5.76893     13.40170      6.71998         0.095702     -0.287951     -1.031285
Ti       5.78765      1.92062     11.01250        -0.428001     -0.288736      0.070595
Ti       5.66230     13.44344     11.02340         0.326446      0.292094     -0.055959
Ti       5.77235      5.84250      2.41520        -0.950891     -0.953782      0.345024
Ti       5.76590      5.74941     15.35693        -0.306025     -1.292066      0.184776
Ti       5.68756      5.72245      6.70309         0.940996      0.328338     -0.757960
Ti       5.76232      5.76662     10.99812        -0.441513     -0.048211     -0.378865
Ti       5.60155      9.56677      2.31048         2.147824      0.013416     -0.264128
Ti       5.69446      9.61435     15.40424        -0.627728     -0.192857     -0.333502
Ti       5.67001      9.52662      6.67933         1.579499      0.424476      0.316483
Ti       5.67862      9.57294     11.01676        -0.090925     -0.168095      0.322305
Ti       9.56288      1.83738      2.31584         0.390639     -0.239115      0.473917
Ti       9.52223      1.84276     15.39339         0.937637      0.772261      0.154873
Ti       9.59062     13.35603      2.29399        -0.068362      0.906712      0.596364
Ti       9.56337     13.41336     15.43158        -0.079080     -0.307324     -1.012088
Ti       9.54094      1.95342      6.56791         0.549617     -0.465295      0.694977
Ti       9.60216     13.43079      6.68506         0.052298      0.302550      0.394873
Ti       9.56976      1.89279     10.98732         0.485667     -0.997076      0.593271
Ti       9.59778     13.37838     11.01420        -0.371897      1.037083      0.726213
Ti       9.58352      5.72261      2.30420        -0.572882     -0.060090     -1.509581
Ti       9.56610      5.63378     15.44912        -0.719389      0.166088     -0.306759
Ti       9.67999      5.76456      6.56836        -1.612325      0.053853      1.362184
Ti       9.56481      5.73091     11.03826        -0.663517      0.067859     -1.739959
Ti       9.52121      9.55752      2.31507        -0.461145      0.130289      0.526729
Ti       9.52203      9.52341     15.37710         0.406098      0.208846      0.098313
Ti       9.52741      9.57595      6.73190        -0.269032     -0.116570      1.442916
Ti       9.56205      9.58426     11.08234         0.128161      0.659740     -1.431097
O       1.88984      1.83176      0.53844        -0.124727     -0.112776     -0.206794
O       2.00735      1.89961     13.54654        -0.459381      0.066097      0.431381
O       1.90827     13.36127      0.61074        -0.107687     -0.051943     -0.195557
O       1.91831     13.31413     13.54435        -0.230218      0.282480      0.285918
O      13.30469      1.86488      0.58408         0.370307      0.189941     -0.855490
O      13.48087      1.78237     13.64126        -0.318312      0.265487     -1.123338
O      13.45265     13.36205      0.52278         0.131347     -0.134187      0.328944
O      13.28784     13.51471     13.65853         0.407312     -0.475560      0.684939
O       1.94784      1.96802      4.94394        -0.126202     -0.123516      0.899424
O       1.90679     13.50916      4.92565         0.003025     -0.209582      0.193176
O      13.38541      1.84294      4.99348        -0.178684      0.131216     -2.809718
O      13.43416     13.44209      4.84628        -0.182724     -0.318869     -0.155201
O       1.77189      1.88069      9.25587         0.571775      0.095387      0.356791
O       1.77801     13.45277      9.24454         0.058767      0.220292      0.332109
O      13.39417      1.89686      9.21334        -0.064121     -0.094671      0.498873
O      13.42493     13.52027      9.12047        -0.101390     -0.166742      0.605249
O       1.94764      5.70536      0.54646        -0.503780      0.146801      0.664235
O       1.94809      5.63359     13.58223        -0.513472     -0.074853     -0.489498
O      13.41342      5.79205      0.53703         0.051237     -0.317508     -0.089342
O      13.44511      5.62733     13.69153        -0.280364      0.281308     -0.627964
O       1.85122      5.73840      4.89220         0.201448      0.100472      0.348198
O      13.50548      5.71017      4.92635        -0.673195      0.151100     -0.746305
O       1.90534      5.73240      9.23826        -0.058716      0.077474      0.775029
O      13.33564      5.84436      9.20879        -0.077092     -0.149607     -0.964221
O       1.87181      9.61791      0.62190        -0.167650      0.108006      0.375107
O       1.94998      9.57284     13.54807        -0.377387      0.051192      1.152764
O      13.26826      9.57074      0.47638         0.338705      0.050000     -0.053073
O      13.36924      9.70111     13.68604         0.136174     -0.533953      0.211435
O       1.86089      9.61417      4.88751         0.148480     -0.097269     -0.393594
O      13.40430      9.67688      4.85041        -0.000066     -0.003716      0.972202
O       1.75662      9.51301      9.29449         0.675315     -0.077315     -0.740597
O      13.34769      9.39297      9.24358        -0.111128      0.360396     -0.513003
O       5.50761      1.92061      0.51149         0.653504     -0.331534     -1.217738
O       5.76169      1.82384     13.61379        -0.148655      0.314457      0.965066
O       5.65307     13.41735      0.49437         0.341429     -0.292290     -0.179344
O       5.79690     13.47009     13.61893        -0.360228      0.027570      0.306726
O       5.84057      1.87421      4.88464        -0.070238      0.002078      0.364256
O       5.80541     13.30577      4.91550        -0.053144      0.410528      0.231989
O       5.72580      1.95726      9.24283         0.156035     -0.392608     -0.427124
O       5.70462     13.46164      9.23839        -0.141145     -0.031591      0.025899
O       5.71086      5.90428      0.70911        -0.008320     -0.262150     -1.655475
O       5.70268      5.57110     13.61734         0.173392      0.291918     -0.660285
O       5.62777      5.71571      4.91840         0.272647      0.095896     -0.135015
O       5.76627      5.64508      9.18451        -0.046797      0.454037      0.981932
O       5.70838      9.45432      0.52876         0.021083      0.310903     -0.024445
O       5.67969      9.66040     13.63452         0.003771     -0.281363     -0.331997
O       5.66193      9.70054      4.92729         0.123138     -0.533703     -0.132876
O       5.63226      9.54848      9.26644        -0.117348      0.154026     -0.376175
O       9.45128      1.75439      0.55536         0.683888      0.345359     -0.469630
O       9.50662      1.89898     13.62334         0.162517      0.021863     -0.039024
O       9.50688     13.40212      0.55171         0.196421     -0.186225     -0.657170
O       9.58583     13.39853     13.64897         0.063548      0.178675      0.504036
O       9.59237      1.81336      4.84121        -0.075377      0.321600     -0.780745
O       9.54983     13.47334      4.91848         0.180706     -0.428888     -0.266606
O       9.58057      1.97603      9.24370        -0.100609     -0.317463     -1.121533
O       9.53402     13.33647      9.27671         0.059438      0.393746     -1.049019
O       9.43636      5.70327      0.47501         0.548426     -0.045006      1.431043
O       9.46560      5.66746     13.66024         0.695686     -0.200887     -0.406096
O       9.65589      5.86083      4.79410        -0.063554     -0.247117     -0.429028
O       9.51107      5.74607      9.19766         0.025014     -0.063532      1.562881
O       9.47912      9.60315      0.57109         0.286802     -0.149038     -0.918550
O       9.47518      9.58831     13.61647         0.296751     -0.149160     -0.295975
O       9.50000      9.42078      5.02629         0.012936      0.301006     -1.899349
O       9.63623      9.62649      9.29624        -0.262345     -0.377232      0.553349
O       3.78767      1.93306      2.71802         0.929579     -0.761111      0.169932
O       3.73715      1.90304     15.77403         0.998664     -0.321623      0.075930
O       3.87843     13.52100      2.67935        -0.227287     -0.284788      0.394402
O       3.88775     13.34458     15.75099        -1.575293      0.165816      0.174347
O       0.00336      1.89116      2.72774        -0.579372      0.214359      0.144399
O       0.00179      1.79340     15.68809        -0.250595      0.266340      0.483362
O       0.03010     13.46627      2.75686        -0.771252     -0.537399     -0.081700
O      15.35078     13.41505     15.73425         0.117565     -0.101326      0.130017
O       3.83676      1.93151      6.97076         0.194411     -0.320961      0.717787
O       3.79204     13.49138      7.02317        -0.189119     -0.286394      0.214622
O      15.34694      1.96219      6.97664        -0.120122      0.257568      0.599175
O      15.20514     13.39232      7.02248         2.495508      0.296116      0.387856
O       3.80949      1.91632     11.45287         0.029241      0.471865     -0.344681
O       3.73098     13.46082     11.36531         1.105511     -0.108012      0.356148
O      15.31550      1.83944     11.47672        -0.063047     -0.197989      0.141054
O      15.32433     13.33662     11.42379        -0.771375      0.599354      0.156256
O       3.73942      5.87923      2.74404         1.233900     -0.177647      0.395338
O       3.71695      5.61385     15.70107         1.256082      0.512172      0.404319
O      15.27777      5.66168      2.69275         0.685297      0.400152      0.086972
O      15.35312      5.77846     15.83293        -0.647318     -0.292229      0.076238
O       3.77345      5.71576      7.10667         0.234866      0.345644     -0.027586
O      15.27425      5.70304      7.09049         1.033805      0.046667      0.252536
O       3.82438      5.78917     11.48904         0.331132     -0.871147     -0.552085
O      15.29578      5.77767     11.41920        -0.336999     -0.174687      0.030725
O       3.84262      9.40790      2.71332        -1.758922      0.218310      0.335754
O       3.80022      9.56976     15.81723        -0.380730     -0.021409      0.008059
O      15.31067      9.70110      2.77831         0.220290     -0.373618     -0.396958
O       0.01954      9.47537     15.80372        -0.895712      0.317704      0.140298
O       3.74303      9.61463      7.02663         0.500383      0.014767      0.357629
O      15.31328      9.51267      7.00769        -0.131377      0.640180      0.153141
O       3.77638      9.49186     11.43391         0.528306      0.267375      0.009816
O      15.35644      9.58100     11.36471        -1.495711     -0.128666      0.797333
O       7.73763      1.96862      2.56090        -1.323406     -0.113777      0.528339
O       7.58136      1.80312     15.82469         0.394786      0.457603      0.198350
O       7.63806     13.27716      2.66626         0.643668      0.269948      0.245143
O       7.61695     13.41566     15.77526         0.838572     -0.004521      0.417587
O       7.67917      1.80846      7.03886        -0.688362      0.747032      0.315904
O       7.64326     13.38136      7.07440         0.380066     -0.064323      0.239573
O       7.72210      1.74059     11.35988        -0.995094      0.264807      0.094215
O       7.55197     13.52047     11.43158         0.556471     -0.258376     -0.102857
O       7.61737      5.58143      2.66914         1.066314      0.466678      0.478001
O       7.62192      5.74248     15.71382        -0.108347     -0.408526      0.513578
O       7.65108      5.81859      7.03158        -0.223183     -0.082754      0.016307
O       7.70810      5.80115     11.47066        -1.130425     -0.184360     -0.166972
O       7.63830      9.78648      2.70111         0.470124     -0.969655      0.222610
O       7.59800      9.48363     15.72017         1.093274      0.181187      0.443819
O       7.60704      9.60651      7.12961        -0.156131     -0.329558     -0.071733
O       7.55791      9.53870     11.47890         0.839229      0.368747     -0.137000
O      11.54313      1.87122      2.67118        -1.101230     -0.001979      0.574421
O      11.44714      1.79637     15.70564         0.309621      0.643954      0.329642
O      11.54268     13.42203      2.65950        -0.078347     -0.298065      0.206833
O      11.49029     13.42217     15.82641         0.081327     -0.388659      0.304704
O      11.44864      1.95279      7.02758        -0.511937     -0.153664      0.467543
O      11.55555     13.43161      7.03184        -1.171803     -0.025465      0.059085
O      11.48896      1.88130     11.27258         0.805746      0.641771      0.897492
O      11.48049     13.31711     11.45305         0.978864      0.096394     -0.160873
O      11.52248      5.86333      2.63061        -0.752218     -0.231184      0.396636
O      11.48248      5.55724     15.73363         0.046268      0.396803      0.291639
O      11.44617      5.68503      7.06552         0.698979      0.337634     -0.067843
O      11.41230      5.72248     11.39840         1.238108     -0.026044      0.488159
O      11.48362      9.50279      2.72434        -0.542015      0.275610     -0.038272
O      11.43826      9.50587     15.74969         0.169241      0.560881      0.271762
O      11.43972      9.57977      6.98839         1.077757     -0.139324      0.468149
O      11.48532      9.60738     11.44239        -0.298574     -0.344018      0.440698
O       1.97187      3.81495      2.69821        -0.428802      0.184825      0.269984
O       1.79731      3.76689     15.81267        -0.094165     -0.027971     -0.161225
O       1.87624      0.01194      2.82244         0.284764     -0.673207     -0.100169
O       1.91630     15.30061     15.76270         0.064171     -0.517388     -0.107508
O      13.39993      3.82586      2.75621        -0.374114      0.114846     -0.146481
O      13.39438      3.78930     15.82788         0.421010     -0.553635      0.111378
O      13.43972     15.33290      2.67437         0.045726     -0.601502      0.336040
O      13.40421     15.34535     15.85887         0.141743     -0.488501      0.048975
O       1.89039      3.88814      7.18382         0.232886     -0.596726     -0.169807
O       1.76895      0.00383      7.06176         0.446891     -0.238228      0.232461
O      13.31657      3.85302      6.98626         0.045507     -0.867525      0.756848
O      13.38819      0.05756      7.00847        -0.038519     -1.270781      0.414862
O       1.75761      3.83530     11.35241         0.510605     -0.687347      0.280578
O       1.89469     15.35254     11.45330        -0.326484     -0.047869      0.155306
O      13.51215      3.81893     11.30829        -0.809440      0.152134      0.418963
O      13.33312     15.27051     11.30998         0.331657      0.752143      0.456121
O       1.75427      7.60857      2.67336        -0.087852      1.509536      0.456650
O       1.92215      7.62464     15.85188        -0.183213      0.211709     -0.402195
O      13.45873      7.75545      2.77710         0.164290     -0.951996     -0.337144
O      13.31216      7.61984     15.82268         0.255954      0.109460     -0.211446
O       1.80845      7.71890      7.06935         0.784921     -0.866665     -0.148118
O      13.46621      7.65400      6.91529        -0.937156      0.267103      0.569783
O       1.82317      7.59499     11.50519         0.258632      0.247698     -0.003081
O      13.42124      7.63491     11.47991        -0.660321      0.187244      0.204050
O       2.01025     11.50838      2.77293        -0.141848     -0.394037     -0.018853
O       1.87209     11.48497     15.69181         0.027694      0.033775      0.589263
O      13.45409     11.46266      2.71135        -0.387553      0.753364     -0.075870
O      13.45880     11.45588     15.83332        -0.254511      0.397360      0.165161
O       1.78274     11.53166      7.13280         0.425043      0.074393     -0.290414
O      13.40529     11.46211      7.18477         0.176791      0.131167     -0.751079
O       1.90097     11.46569     11.33503         0.129744      0.466372      0.602789
O      13.38862     11.48931     11.27504         0.195101     -0.009916      0.318660
O       5.73162      3.74710      2.63604        -0.137691      0.738297      0.532654
O       5.59881      3.83281     15.86985         0.868546     -0.610612      0.039450
O       5.84785     15.33948      2.65164         0.063143     -0.269582      0.173790
O       5.77000     15.34376     15.80248        -0.789558     -0.132341      0.146388
O       5.74329      3.83778      7.00083         0.073723     -0.805614      0.377781
O       5.78943     15.28820      7.01432        -0.289392      1.051579      0.362572
O       5.81813      3.80152     11.32863        -0.067290      0.541179      0.378993
O       5.64600      0.06949     11.44967         0.140237     -0.977564     -0.099209
O       5.86954      7.69469      2.78381        -0.070055      0.109763      0.460486
O       5.75328      7.58092     15.79198        -0.661262      0.734095     -0.074035
O       5.66216      7.66345      7.02731        -0.262015      0.092294      0.083136
O       5.68200      7.64824     11.48724         0.587306     -0.356905     -0.447364
O       5.69602     11.41684      2.77471        -0.576693      1.131814     -0.316538
O       5.77000     11.43208     15.72073         0.071248      0.997253      0.551131
O       5.71617     11.50230      7.04133        -0.503620     -0.263993      0.611072
O       5.64855     11.51653     11.38983         0.072401     -0.009295      0.020729
O       9.63501      3.79828      2.70222         0.291664      0.686736      0.081777
O       9.46350      3.74453     15.91444         0.152914     -0.301913     -0.094785
O       9.59237     15.27194      2.66788        -0.238835      0.113496      0.309589
O       9.59439     15.32766     15.87376        -0.477647     -0.451698     -0.109727
O       9.47267      3.88622      6.92735         0.141366     -0.693899      0.042208
O       9.46338     15.34900      6.92111         0.660746     -0.287026      0.789210
O       9.51204      3.78562     11.32691         0.203990      0.535682      0.560373
O       9.78291     15.28969     11.35950        -0.806032      0.596757      0.150160
O       9.37168      7.64899      2.72867         0.594343     -0.053879     -0.280229
O       9.59315      7.56696     15.70132         0.022885      0.978127      0.268110
O       9.62568      7.62540      7.13120        -0.345405      0.308010      0.002133
O       9.53514      7.70251     11.39014         0.308915     -0.588361      0.542217
O       9.63079     11.48535      2.68337         0.367560     -0.077885      0.384937
O       9.55493     11.50056     15.78792        -0.102395     -0.698584      0.286354
O       9.59181     11.46950      7.14465        -0.131855      0.748604     -0.342279
O       9.56445     11.55173     11.36991        -0.599417     -1.558764      0.831680
