  # total energy = -7866.77425546 
CRSYTAL
PRIMVEC
    15.010000000000000    0.0000000000000000    0.0000000000000000
     0.0000000000000000   15.010000000000000    0.0000000000000000
     0.0000000000000000    0.0000000000000000    16.400000000000000
PRESSURE
15.3458 15.5655 4.78628 -0.195301 -0.059927 -0.034805
PRIMCOORD
320 1
Pb       3.89608      3.75880      4.36470        -0.102812     -0.724473     -0.602722
Pb       3.80270      3.77890      0.17348         0.034457      0.149890     -0.384089
Pb       3.65337      0.11401      4.13062         0.672055     -0.314199     -0.090352
Pb       3.66816      0.02101     16.38810         0.313237     -0.597781      0.161207
Pb       0.00938      3.67861      4.03982        -0.435935     -0.086101      0.487919
Pb       0.06688      3.78315     16.38211        -0.389239      0.060867     -0.203321
Pb       0.08275     15.00118      4.09221        -0.206485     -0.025619      0.255478
Pb      14.91932      0.01949      0.01388         0.042186     -0.054129      0.106536
Pb       3.83663      3.71683      8.31155         0.172468     -0.197536     -0.300407
Pb       3.76996     14.79991      8.32527         0.101978      0.464683     -0.059044
Pb       0.18076      3.79529      8.31088        -0.844040     -0.218611     -0.694930
Pb       0.08033     14.91896      8.27844        -0.235684      0.293143     -0.648598
Pb       3.71342      3.78817     12.24780         0.282853     -0.722400     -0.003790
Pb       3.75380     14.97354     12.48930        -0.180990      0.464932     -0.688640
Pb       0.08527      3.72692     12.30043        -0.386909      0.104642     -0.049328
Pb       0.02727      0.01405     12.32967        -0.224982     -0.000908     -0.152765
Pb       3.54335      7.47722      4.12825         0.585196      0.186980     -0.010402
Pb       3.70251      7.36743      0.22851         0.191905      0.304326     -0.664384
Pb      14.83638      7.46318      4.10174         0.256770      0.517727      0.091327
Pb      14.90577      7.54696      0.01796         0.481346      0.449825      0.140968
Pb       3.71221      7.47999      8.13645         0.158191      0.220190     -0.056771
Pb      14.96077      7.46774      8.26247         0.153718     -0.249267     -0.564372
Pb       3.74473      7.57620     12.31727         0.369374     -0.343291     -0.432548
Pb       0.07125      7.38173     12.36337        -0.145593      0.136619     -0.680717
Pb       3.53138     11.36942      4.14262         0.821685     -0.003171      0.121584
Pb       3.67285     11.16871     16.32396         0.030789      0.305201      0.079275
Pb      14.91410     11.31369      4.08072         0.058556     -0.198213      0.461693
Pb      14.86649     11.31508      0.00771         0.418247     -0.596617     -0.065868
Pb       3.66309     11.15250      8.33328         0.576555      0.111199     -0.414516
Pb      14.94310     11.15333      8.29909         0.088753      0.454371     -0.612706
Pb       3.68928     11.32974     12.37843         0.262381     -0.544448     -0.147273
Pb      14.98268     11.29169     12.35576         0.010029     -0.300919     -0.271527
Pb       7.58658      3.62817      4.21740        -0.937179      0.197156      0.353143
Pb       7.56848      3.79921      0.00079        -0.332569      0.154334      0.287031
Pb       7.48990     15.00826      4.22952         0.016339     -0.292617     -0.244678
Pb       7.43210      0.08493      0.04933         0.002158     -0.477256      0.251635
Pb       7.57524      3.68492      8.24753        -0.334674      0.319079     -0.322625
Pb       7.56908     14.90759      8.32208        -0.037264     -0.380408     -0.197870
Pb       7.57402      3.70741     12.26301        -0.447325      0.080749      0.040670
Pb       7.58754     14.89935     12.47772        -0.016113      0.001093     -0.564178
Pb       7.31997      7.57119      4.10686         0.300188     -0.732924      0.205492
Pb       7.49874      7.53239      0.10514        -0.032226     -0.468072     -0.126185
Pb       7.45188      7.53562      8.36011        -0.299318     -0.162467     -0.865948
Pb       7.54142      7.39456     12.51047        -0.229345      0.032378     -0.645097
Pb       7.38598     11.35553      4.08049        -0.056024     -0.049832      0.543179
Pb       7.52693     11.26541      0.08337        -0.273615     -0.227138     -0.004621
Pb       7.35370     11.15886      8.35275        -0.032551      0.460436     -0.569571
Pb       7.50407     11.12749     12.44510        -0.094672      0.632895     -0.341010
Pb      11.17975      3.72003      4.13512         0.336835      0.011016     -0.218329
Pb      11.25200      3.75790     16.39675         0.175293      0.323598     -0.168553
Pb      11.27389      0.06729      4.21266        -0.118765     -0.306542     -0.353606
Pb      11.09708      0.00958      0.12706         0.503877     -0.234467     -0.017638
Pb      11.34179      3.79960      8.16982         0.327581     -0.339671     -0.461173
Pb      11.25005     14.88781      8.30418         0.349829      0.243654     -0.477235
Pb      11.34737      3.74014     12.26894         0.300392      0.001633      0.254988
Pb      11.30202      0.12395     12.29934         0.187450     -0.445493     -0.356197
Pb      11.15142      7.45092      4.17473         0.484895      0.268893     -0.298116
Pb      11.15447      7.52396      0.12704         0.196001     -0.166132     -0.157037
Pb      11.13606      7.49252      8.20558         0.332621      0.119467     -0.143572
Pb      11.38090      7.41529     12.31122        -0.386843      0.265730      0.107606
Pb      11.21587     11.28072      4.17491         0.210195     -0.133684     -0.436867
Pb      11.23558     11.16022      0.05768         0.191632      0.288327      0.273178
Pb      11.05479     11.08745      8.30934         0.542713      0.612798     -1.060998
Pb      11.25909     11.26390     12.27788        -0.007076     -0.157589      0.235328
Ti       1.86175      1.92330      2.09420         0.531783     -1.056821     -0.137990
Ti       1.94450      1.92335     14.46769        -0.661313     -0.105670     -1.233503
Ti       1.88856     13.10858      2.00617        -0.320894      0.627129     -0.610888
Ti       1.80823     13.15763     14.35472         0.155348     -0.577993     -0.189831
Ti      13.14559      1.89145      1.96768        -0.864577     -0.141630      0.503026
Ti      13.13902      1.89718     14.30535         0.176547     -0.136197     -0.255041
Ti      13.12587     13.14618      2.04283        -0.973409      0.472544     -0.476985
Ti      13.09455     13.14896     14.34738        -0.147407      0.243750     -0.034222
Ti       1.92279      1.86179      6.27604        -0.529507     -0.167204     -0.210077
Ti       1.89012     13.08633      6.23173        -0.248984      0.281034     -0.783999
Ti      13.15606      1.85072      6.15997         0.668274      0.369392     -0.118838
Ti      13.14164     13.10402      6.17569        -0.471496      0.501997     -0.115715
Ti       1.93098      1.83412     10.24893         0.438791     -0.375164     -0.339151
Ti       1.91741     13.07228     10.30164        -0.824524      0.764268     -0.014708
Ti      13.24031      1.88628     10.21268        -1.174420     -0.262519      0.102541
Ti      13.16003     13.07445     10.21035         0.075096      1.087533     -0.087111
Ti       1.80129      5.61414      2.09949         0.439735      0.310965     -0.754920
Ti       1.92799      5.65471     14.33599        -0.292076     -0.659848      0.163122
Ti      13.13115      5.62895      2.03995        -0.932734     -0.072609     -0.539820
Ti      13.16523      5.65173     14.41274        -0.493057     -0.869287     -0.457122
Ti       1.82684      5.62334      6.11008        -0.345296      0.523930      0.456212
Ti      13.09657      5.62695      6.11078         0.637575     -0.326811      0.305872
Ti       2.00047      5.60435     10.21012        -1.539074      0.299804      0.021346
Ti      13.12861      5.63035     10.19623         1.468861     -1.006897     -0.296922
Ti       1.82752      9.42236      2.09000        -1.228614     -0.366069     -0.798406
Ti       1.93729      9.34692     14.34299        -0.967078      0.542968     -0.050975
Ti      13.10832      9.42126      2.12183        -0.729507     -0.793258     -0.315115
Ti      13.10849      9.35817     14.28047         0.120009      0.883143      0.417073
Ti       1.77990      9.40627      6.09651         0.201626     -0.647390      0.142559
Ti      13.08110      9.37593      6.24049        -0.576420     -0.183233     -1.422868
Ti       1.84369      9.33299     10.22613         0.397724     -0.122152      0.357000
Ti      13.08008      9.32174     10.20524         0.273064      0.571594      0.111607
Ti       5.54842      1.83170      2.03926         0.820805      0.071043      0.700347
Ti       5.65215      1.94956     14.28545        -0.546864     -1.059807     -0.049525
Ti       5.58946     13.10610      2.02458         0.422562      0.626506      0.064299
Ti       5.64596     13.08134     14.39989         0.092991      0.141465      0.265890
Ti       5.70046      1.75134      6.35672        -0.616265      0.660418     -1.432273
Ti       5.66451     13.08214      6.22646        -0.262238     -0.211407     -0.835569
Ti       5.70109      1.79286     10.31671        -1.041945      0.552762     -0.011818
Ti       5.67124     13.14989     10.46403         0.428333     -0.855736     -1.212836
Ti       5.56908      5.56915      2.22691         0.534728      0.009194     -0.671234
Ti       5.59533      5.59928     14.39298         0.548367      0.939500      0.020854
Ti       5.63183      5.58162      6.23618         0.428341      0.740762     -0.117260
Ti       5.69134      5.60360     10.24118        -0.046215      0.691292     -0.219381
Ti       5.51429      9.37618      2.06892         0.552005      0.089142     -0.206549
Ti       5.63642      9.35613     14.38277        -0.438761     -0.535074      0.133720
Ti       5.58355      9.39526      6.09832         0.098702     -0.525630      0.055791
Ti       5.60499      9.36301     10.34518        -0.317033     -0.484739     -0.358283
Ti       9.31529      1.90664      2.13720         0.269696     -1.190484     -0.055992
Ti       9.37637      1.85094     14.37308         0.836855      0.288637      0.670625
Ti       9.32296     13.10579      2.07703         0.415493      0.559142     -0.061265
Ti       9.41380     13.10839     14.42851        -0.383905      0.131375     -0.441572
Ti       9.45389      1.85609      6.24544         0.289369     -0.492812     -0.464917
Ti       9.40778     13.03311      6.14496        -0.447277      0.745724     -0.510062
Ti       9.42643      1.83959     10.25317         0.493406     -0.417293     -0.672041
Ti       9.43955     13.05231     10.26624        -1.161189      0.817552      0.032710
Ti       9.32012      5.63406      2.10716        -0.063148      0.022433      0.334608
Ti       9.38022      5.61703     14.29164         0.220811     -0.518630      0.313807
Ti       9.33824      5.67432      6.12307        -0.071536     -0.685108     -0.952800
Ti       9.43255      5.56699     10.18376        -0.597562      1.086709      0.516261
Ti       9.31108      9.38435      2.16263         0.201746     -0.373521     -0.454462
Ti       9.42501      9.38956     14.39409         0.197676     -0.521741     -0.299516
Ti       9.30895      9.33854      6.09713        -0.354192      0.224408     -0.536558
Ti       9.31204      9.36611     10.34823         0.194847     -1.382759      0.724295
O       1.86896      1.87864      0.21602         0.173313      0.051385     -0.256835
O       2.06269      1.81750     12.54180        -0.592390      0.010001      0.401247
O       1.87915     13.00102      0.14179        -0.094434      0.238471      0.232335
O       1.81742     13.18630     12.37317        -0.002882     -0.363823      1.297353
O      13.17038      1.92241      0.11173        -0.021217     -0.319592      0.042317
O      13.15651      1.82391     12.36363        -0.151402      0.125674      1.873538
O      13.06061     13.20972      0.13193         0.251916     -0.446359      0.431147
O      13.24670     13.14811     12.46367        -0.607084     -0.277184      0.278439
O       1.84018      1.82294      4.34140         0.179326      0.077646      0.184272
O       1.77714     13.08488      4.24768         0.054602      0.325534      0.462812
O      13.08731      1.90208      4.23892         0.049821     -0.022547      0.704075
O      13.10018     13.05996      4.23836        -0.113580      0.583186      0.389121
O       1.88568      1.84191      8.33421        -0.502501      0.179479      0.766517
O       1.95628     13.06357      8.36583        -0.245003      0.195608      0.131329
O      13.08789      1.89407      8.39741         0.256896     -0.072341     -0.338673
O      12.99658     13.10025      8.38176         0.943322     -0.130959     -0.167097
O       1.79379      5.61955      0.13734         0.288334     -0.030795      0.688853
O       1.87448      5.54461     12.42348         0.206206      0.513165      1.055017
O      13.21609      5.55318      0.09194        -0.025746      0.411911      0.797212
O      13.13643      5.65024     12.48576        -0.159534      0.268341      0.074143
O       1.71596      5.60258      4.26617         0.622619      0.184389      0.162941
O      13.15018      5.61129      4.24197        -0.019375     -0.191208     -0.012736
O       1.91452      5.57880      8.34976        -0.184773      0.115382      0.409231
O      13.11342      5.61286      8.33028        -0.102349     -0.141134      0.533122
O       1.67585      9.43595      0.18679         0.710208     -0.092491      0.472118
O       1.90313      9.31762     12.44905         0.017649      0.186021      0.677945
O      13.12710      9.41944      0.21027        -0.199287     -0.205698      0.047693
O      13.06648      9.45646     12.41923        -0.147331     -0.608752     -0.015162
O       1.69311      9.35056      4.26187         0.572351      0.057742      0.010436
O      12.96748      9.31661      4.26445         0.379851      0.216938      0.750549
O       1.90028      9.38990      8.38125        -0.253131     -0.019713      0.123742
O      13.04318      9.39988      8.29586         0.323429      0.016714      1.085990
O       5.62442      1.82330      0.16515        -0.204224      0.428957      0.062397
O       5.50875      1.82381     12.40735         0.335960     -0.011410      1.096087
O       5.62148     13.07502      0.15580        -0.001549     -0.122488      0.317056
O       5.71803     13.13579     12.45744        -0.351449     -0.073428      0.764362
O       5.58336      1.92086      4.35894        -0.180334     -0.461975      1.337022
O       5.63494     13.04759      4.33611        -0.104317      0.210982      0.031970
O       5.80096      1.85348      8.46379        -0.225724     -0.249557     -0.839654
O       5.66608     13.05416      8.45234        -0.040810      0.041596      0.016576
O       5.47855      5.54007      0.22477         0.415747      0.122686      0.526063
O       5.61217      5.63037     12.54325         0.250216      0.264499     -0.122418
O       5.51962      5.63545      4.24500         0.088507     -0.335961      1.297168
O       5.70232      5.60146      8.37970        -0.422429     -0.063591     -0.053517
O       5.48577      9.47018      0.16601         0.700148     -0.510682      0.903154
O       5.51057      9.32043     12.48502         0.220223     -0.126486      0.688650
O       5.63253      9.43501      4.23388        -0.210608     -0.272843      0.721293
O       5.64856      9.41685      8.42721        -0.021547     -0.071516      0.687933
O       9.28003      1.84969      0.22638        -0.080047      0.331681      0.327565
O       9.39152      1.83958     12.58174        -0.042802     -0.207930     -1.434691
O       9.22903     13.05339      0.12666         0.204206      0.045501      0.662096
O       9.35910     13.17717     12.50320         0.200472     -0.280796      0.377215
O       9.43152      1.83458      4.28780        -0.046226      0.036879      0.262482
O       9.39876     13.13611      4.22918         0.051742     -0.453071      0.923489
O       9.40536      1.75012      8.33884        -0.051464      0.665870      0.914897
O       9.34737     13.09946      8.38490        -0.041205     -0.098497      0.407279
O       9.32569      5.53094      0.23542        -0.214976     -0.042647     -0.049297
O       9.21035      5.49212     12.39008         0.804721      0.269076      1.269818
O       9.20842      5.63396      4.20576         0.808596      0.148191      1.248367
O       9.41299      5.64402      8.32585         0.094681     -0.207021      0.583505
O       9.33220      9.34043      0.15548        -0.085034      0.042798      0.260315
O       9.50494      9.41734     12.49058        -0.325924     -0.155428      0.542774
O       9.42912      9.28492      4.21672        -0.629454      0.088482      0.442269
O       9.38018      9.30987      8.50657        -0.620116     -0.144829     -0.055617
O       3.71724      2.08020      2.46311        -0.574239      0.319715     -0.598000
O       3.76869      1.52367     14.57966         0.306692     -0.047077      0.049411
O       3.74556     12.90037      2.26313        -0.226952     -0.564763      0.074499
O       3.67296     13.33813     14.51588         0.958851      0.294677     -0.116273
O      14.99746      1.62414      2.34666        -0.080880      0.075306     -0.295340
O       0.02999      2.15093     14.46127         0.220383     -0.046213      0.175347
O      14.98851     13.38635      2.06761        -0.587675     -0.111093      0.637477
O      14.98721     12.78030     14.54011        -0.526155     -0.089809     -0.046584
O       3.80317      2.01986      6.55057        -0.515975      0.263404     -0.510196
O       3.73656     12.85196      6.25462        -0.080908     -0.241215      0.551698
O       0.02205      1.61411      6.35271        -0.487036      0.073237      0.142385
O      14.97896     13.28477      6.40579        -0.267444      0.428960      0.220077
O       3.74390      2.07611     10.32475         1.056146      0.429887      0.169981
O       3.73409     12.91069     10.52008         0.770909     -0.506352     -0.160595
O       0.02772      1.61953     10.49028         0.613428     -0.064168     -0.189207
O       0.03138     13.36326     10.40684        -0.479427      0.264839     -0.253898
O       3.63932      5.37705      2.29785         0.577716     -0.064473      0.047642
O       3.78941      6.02765     14.66941        -0.877189     -0.539692     -0.697573
O      15.00163      5.79298      2.27952        -1.348172      0.401757     -0.035567
O      15.00394      5.20308     14.40422         0.987964      0.863723      0.289699
O       3.72789      5.37820      6.39245         0.224963      0.293790     -0.238871
O      14.98587      5.99163      6.39982        -0.088179     -0.668754     -0.253100
O       3.77385      5.34110     10.46835         0.516985     -0.057775     -0.207714
O       0.02776      5.86976     10.44215         0.002259     -0.173394     -0.174387
O       3.65233      9.68235      2.36155         0.256974     -0.418768     -0.436099
O       3.75162      9.04143     14.66853        -0.703226      0.005804     -0.330931
O      14.92457      9.13199      2.28828         0.415690      0.164712      0.021296
O      14.94635      9.58771     14.47047         0.649561      0.380557      0.107379
O       3.71423      9.55599      6.33245        -0.066022      0.398825     -0.019982
O      14.94812      9.06584      6.37179        -0.422747      0.236254      0.147227
O       3.74638      9.66963     10.47895        -0.634662     -0.143611     -0.140134
O      14.98560      9.05210     10.37947        -0.087436      0.075440      0.195418
O       7.40253      1.50009      2.43798         0.857155      0.828808     -1.004937
O       7.50771      2.22667     14.47138        -0.717372     -0.371846      0.307677
O       7.48278     13.39827      2.31891        -1.418597      0.020544     -0.133013
O       7.49073     12.64240     14.56194        -0.334741      0.590614     -0.566802
O       7.56042      1.62871      6.33986        -0.040951     -0.284091      0.248900
O       7.53745     13.42817      6.29255        -0.322040     -0.251771      0.544809
O       7.50247      1.55290     10.53783         1.331519     -0.047009      0.233340
O       7.55331     13.36377     10.52323        -0.412479      0.252628     -0.268889
O       7.42452      5.90551      2.33724        -0.389129     -0.253339     -0.741438
O       7.49838      5.32831     14.61240         0.012245     -0.467375     -0.196013
O       7.53072      5.79937      6.36783        -1.395909      0.245700      0.114855
O       7.51986      5.91916     10.34188         0.450259     -0.160705      0.503883
O       7.41381      8.89508      2.23327         0.134008      1.194771     -0.389638
O       7.49723      9.64744     14.42951         0.274556      0.174401      0.445855
O       7.48292      9.05039      6.38858        -0.401715      0.283523     -0.108249
O       7.47220      8.89157     10.62527         0.450308      0.931981     -0.568260
O      11.21887      2.19952      2.15335        -0.105383     -0.336247      0.065055
O      11.26482      1.50434     14.52705         0.006071      0.217137      0.146461
O      11.12154     12.73718      2.04253         1.525371      0.213262      0.536429
O      11.22144     13.49294     14.59031         0.412527     -0.141829     -0.306172
O      11.30346      2.15655      6.31453        -0.407043      0.163513      0.158812
O      11.20520     12.76309      6.36563         0.915225      0.300922     -0.095119
O      11.30171      2.08419     10.55730        -1.353715      0.100469     -0.391326
O      11.27151     12.78035     10.30780        -0.330092     -0.093220      0.936276
O      11.21948      5.39647      2.20724         0.683256     -0.541767      0.050827
O      11.22171      5.80480     14.70684         0.075927      0.450333     -0.650264
O      11.23579      5.36395      6.22591         0.034850     -0.112180      0.340363
O      11.29750      5.28090     10.41004        -0.937926     -0.112150      0.119046
O      11.14950      9.63348      2.22446         0.361462      0.000422     -0.280791
O      11.24431      8.90787     14.55532        -0.035381      0.615604      0.052512
O      11.15727      9.51452      6.37662         0.664987      0.594907      0.172465
O      11.22014      9.66966     10.38126         0.467862     -0.143154      0.375445
O       1.59047      3.74606      2.21612        -0.123341     -0.245159      0.047163
O       2.26142      3.76691     14.55118        -0.096197     -0.257340      0.146934
O       2.08866     14.99611      2.15986        -0.060376      0.103857      0.507793
O       1.50484     14.93647     14.66335         0.684008      1.196055     -0.395335
O      13.38617      3.74605      2.07960         0.083493      0.215262      0.665638
O      12.91241      3.76236     14.41092        -0.637363     -1.029517      0.322283
O      12.80201      0.00630      2.16944         0.076267     -0.203911      0.195526
O      13.48875      0.00375     14.51424        -0.233244     -0.154807     -0.261599
O       1.65308      3.77709      6.36705        -0.194453     -0.639683     -0.139804
O       1.99221     14.94173      6.37266         0.500566      0.580613      0.120690
O      13.37760      3.75885      6.41801         0.117858      0.112955     -0.191450
O      12.83411     14.98577      6.38796         0.205566      0.117382     -0.211029
O       1.71644      3.71024     10.46218        -0.365311      0.382001     -0.116699
O       2.23500      0.00722     10.41155        -0.735417     -0.717459     -0.048919
O      13.37684      3.76499     10.49594         0.167068     -0.335298     -0.154931
O      12.88076     14.99824     10.41950         0.121421     -0.608112     -0.056058
O       1.99537      7.48753      2.26073         0.353808      0.639151      0.082460
O       1.57849      7.46976     14.53343        -0.312327      0.149939     -0.065716
O      12.84651      7.51497      2.24780         0.182213     -0.769815     -0.234001
O      13.40371      7.50588     14.54443         0.116953     -0.352870     -0.145650
O       2.03515      7.55016      6.38252         0.435036     -1.053820     -0.162733
O      12.73601      7.49560      6.41505         0.729340     -0.287791     -0.346029
O       2.21187      7.45508     10.44991        -0.391451      0.675301     -0.031292
O      12.86092      7.44593     10.30391        -0.340773      1.441289      0.742232
O       1.53150     11.28115      2.30852         0.197685     -0.567497     -0.138969
O       2.16365     11.25306     14.47526        -0.411270     -0.952020     -0.236792
O      13.26298     11.27519      2.31434         0.310649      0.019625     -0.348090
O      12.75186     11.25915     14.53076         0.305596     -0.281896     -0.161012
O       1.51390     11.24203      6.31427         0.363440     -0.401313      0.212997
O      13.33761     11.26528      6.31462        -0.045717     -1.074984      0.138160
O       1.56197     11.23285     10.35242         0.216672     -0.365300      0.454385
O      13.44805     11.21470     10.39669        -0.151803     -0.306330      0.177295
O       5.77298      3.69733      2.25438         0.165608      0.559948      0.048460
O       5.25620      3.72720     14.40010        -0.023686      0.119774      0.810412
O       5.21795      0.01305      2.23352         0.424427     -1.241146     -0.019696
O       5.86778     14.92677     14.57121         0.291861      0.838248     -0.290143
O       5.87337      3.71501      6.48129        -0.476264      0.161526     -0.334608
O       5.33253     14.92974      6.40111         0.472863      0.580387      0.135686
O       5.86056      3.74461     10.40184         0.228569     -0.440610      0.397027
O       5.36196     14.95852     10.40680        -0.189827      0.310897      0.183912
O       5.26461      7.49883      2.34633        -0.300319      0.058167     -0.386596
O       6.00389      7.50300     14.68963        -0.626039     -0.131243     -0.683363
O       5.37630      7.48531      6.48811         0.344774     -0.179510     -0.765640
O       5.27043      7.45193     10.36710         0.051752      0.492405      0.391697
O       5.90536     11.22407      2.27799        -0.237639      0.296063     -0.401986
O       5.23835     11.22791     14.43506         0.131866     -0.196283      0.242477
O       5.90695     11.21180      6.38552        -0.024057      0.009086      0.205463
O       5.83396     11.21499     10.52875         0.546536      0.142968     -0.028287
O       9.03236      3.73186      2.45350         0.363761     -0.415511     -1.161523
O       9.75313      3.71544     14.48157        -0.806190     -0.107657      0.412080
O       9.67199     14.93725      2.33087        -0.333618      1.225704     -0.582792
O       8.97557     14.94607     14.66862         0.206862      0.768032     -0.479795
O       9.16156      3.76838      6.25572         0.069382     -0.837396      0.442172
O       9.75512     14.98099      6.31761        -0.465852     -0.067761     -0.016879
O       9.01674      3.68317     10.36673         0.666062      0.243751      0.169686
O       9.68779     14.97364     10.38106        -0.254699     -0.071282      0.409882
O       9.65065      7.43890      2.28346        -0.368290      0.905611     -0.467332
O       9.01721      7.44775     14.56908         0.542062      0.244444     -0.259293
O       9.59656      7.49798      6.38062         0.087794     -0.339711     -0.007641
O       9.79053      7.38907     10.64421        -0.898599      0.657392     -1.026559
O       8.94630     11.20314      2.30488         0.153023     -0.177432     -0.443158
O       9.78702     11.23625     14.51917        -0.436046     -0.415714     -0.118604
O       9.13399     11.16613      6.36100        -0.376291      0.741873      0.189005
O       8.99010     11.20688     10.49532         0.583688     -0.115574     -0.144282
