  # total energy = -7877.47743032 
CRSYTAL
PRIMVEC
    15.6000000000000000    0.0000000000000000    0.0000000000000000
     0.0000000000000000   15.6000000000000000    0.0000000000000000
     0.0000000000000000    0.0000000000000000    17.640000000000000
PRESSURE
-4.30912 -4.06257 2.72465 -0.144304 -0.064273 0.010663
PRIMCOORD
320 1
Pb       3.75948      3.77676      4.41519        -0.095465     -0.283151     -0.415695
Pb       3.92658      3.94261     17.59963        -0.013192     -0.125687     -0.438540
Pb       3.84169     15.47893      4.33921        -0.422209      0.116019     -0.844794
Pb       3.76608     15.57592     17.57640         0.082877      0.091435     -0.589307
Pb       0.03623      3.90118      4.35325        -0.460384     -0.484367      0.098149
Pb       0.00072      4.00582      0.00235         0.143585     -0.166629     -0.287280
Pb      15.54127     15.51117      4.29971         0.046092      0.769426     -0.503412
Pb      15.45547      0.01420     17.57614         0.025645      0.059961     -0.466678
Pb       3.79912      3.98981      8.80920         0.135544     -0.028845     -0.381832
Pb       3.84573      0.04590      8.73170         0.053165     -0.323019     -0.492792
Pb      15.54606      3.96580      8.77363        -0.198257      0.048500     -0.604894
Pb      15.57931     15.58394      8.72708         0.057445      0.075053     -0.390853
Pb       3.94323      3.60906     13.24880         0.044917      0.185650      0.018867
Pb       3.80262     15.48277     13.13659         0.129429      0.804274      0.041338
Pb       0.02060      3.79809     13.18974        -0.211687      0.122060     -0.685266
Pb      15.56272      0.10710     13.13586         0.180416     -0.383846     -0.153888
Pb       3.88587      7.78294      4.42893         0.689532     -0.100473     -0.476708
Pb       3.95892      7.81385     17.61944         0.064793     -0.224069     -0.776586
Pb       0.09224      7.95049      4.41695        -0.889125     -0.480382     -0.692156
Pb       0.08387      7.85415     17.50598        -0.162504     -0.248930     -0.266416
Pb       3.92347      7.91343      8.85218         0.101243     -0.332522     -0.320331
Pb      15.52186      7.81561      8.90659        -0.022384     -0.173820     -0.344739
Pb       3.93172      7.74005     13.13875         0.060537      0.325943     -0.476953
Pb       0.11592      7.86437     13.19795        -0.162600      0.137281     -0.692782
Pb       3.91925     11.65495      4.37736        -0.412888      0.187362     -0.656745
Pb       3.92782     11.65267     17.60776        -0.400294      0.126911     -0.959216
Pb      15.53391     11.59736      4.31164         0.080244     -0.383205     -0.902109
Pb      15.55083     11.66597     17.48312         0.228811     -0.019450     -0.649717
Pb       3.84378     11.62762      8.80444        -0.402520      0.327209     -0.473925
Pb      15.48527     11.83277      8.77507         0.562650     -0.529565      0.399601
Pb       3.81604     11.83319     13.14350         0.374879     -0.705825      0.010146
Pb      15.47652     11.67912     13.16277        -0.469287     -0.022498     -0.533408
Pb       7.85502      3.63342      4.56304        -0.093273      0.525369     -0.601640
Pb       7.75223      3.84383     17.58527         0.250392      0.124182     -0.633285
Pb       7.64913     15.42271      4.38738         0.296196      0.243357     -0.761798
Pb       7.71424      0.01426     17.61542         0.052098     -0.231166     -1.065170
Pb       7.58623      3.94472      8.76891         0.845668     -0.126054      0.134881
Pb       7.81349     15.58346      8.74252        -0.161997      0.144302      0.070447
Pb       8.04975      4.00677     13.12150         0.006037     -0.712964     -0.389709
Pb       7.81385      0.06279     13.21658        -0.122274      0.077628     -0.539031
Pb       7.96491      7.70662      4.39460        -0.530330      0.000119     -0.363458
Pb       7.81973      7.89100      0.05161        -0.149259      0.009564     -0.416714
Pb       7.70560      7.84225      8.73285        -0.117071      0.131120     -0.124681
Pb       7.73088      7.93045     13.12685        -0.240825     -0.001603     -0.821247
Pb       7.86861     11.71143      4.43009        -0.209974     -0.515787     -0.642378
Pb       7.76738     11.72293      0.02269         0.244829     -0.113798     -0.956863
Pb       7.85673     11.75027      8.94220        -0.407747     -0.250742     -0.520878
Pb       7.78598     11.81752     13.19267         0.030890      0.185044     -0.529033
Pb      11.69199      3.86629      4.44181         0.382008      0.153607     -0.310914
Pb      11.82077      3.81858      0.02258        -0.181667      0.211551     -0.432367
Pb      11.50794     15.36101      4.44812         0.237891      0.449272     -0.958493
Pb      11.42042     15.45485      0.00663         0.545120      0.182778     -0.569674
Pb      11.53079      3.94047      8.81934         0.159042     -0.079196     -0.526020
Pb      11.85496      0.06949      8.70777        -0.572644     -0.339815     -0.179357
Pb      11.82907      3.95020     13.19668        -0.401753     -0.290716     -1.203749
Pb      11.68111     15.53664     13.15948         0.005885      0.207014     -0.348612
Pb      11.77470      7.61707      4.26639        -0.126405      0.351789     -0.189575
Pb      11.65601      7.68040     17.49936         0.277182      0.074234      0.013299
Pb      11.54835      7.81581      8.71582         0.421000     -0.316047     -0.324113
Pb      11.74810      7.69544     13.23224        -0.234991      0.383995     -0.621818
Pb      11.67221     11.62580      4.22791         0.302245     -0.492327     -0.523733
Pb      11.82111     11.55333     17.46873        -0.383253      0.241692     -0.739386
Pb      11.76562     11.61892      8.62241        -0.311695      0.312874      0.642117
Pb      11.58263     11.63022     13.02239         0.232494      0.210022      0.204766
Ti       1.84809      1.89649      2.29904        -0.083605     -0.297150      1.356497
Ti       1.90817      1.94291     15.66507         0.685320     -0.413006      1.039177
Ti       1.81765     13.54055      2.29587         1.072955      0.067869      1.809802
Ti       1.78356     13.62944     15.53778         1.472240     -0.040924      2.301413
Ti      13.48868      1.91293      2.50829         0.751050      0.119478      1.798837
Ti      13.67494      1.94957     15.43699        -0.003852     -0.513131      3.462405
Ti      13.57626     13.64563      2.30570        -0.403358     -0.245700      1.743713
Ti      13.51205     13.69692     15.47032         0.305523     -0.794412      1.319047
Ti       1.94905      1.96680      6.84414        -1.000050      0.198656     -0.780786
Ti       1.87633     13.61913      6.65475         1.284687     -0.581508      1.772214
Ti      13.61978      1.94800      6.72930         0.440335      1.206176      0.490989
Ti      13.62243     13.60355      6.64792        -0.173844      0.641725      2.591230
Ti       1.95287      2.00289     11.13050        -0.228783     -1.177106      0.369552
Ti       1.86198     13.62452     11.21140        -0.606345      1.008211      1.480105
Ti      13.61487      1.93429     11.07941        -0.080911      0.570943      2.187809
Ti      13.58859     13.64374     11.17377         0.379563      0.274677      0.931318
Ti       1.98046      5.88328      2.53319        -0.397327     -0.446837      1.296155
Ti       2.04262      5.84310     15.50859         0.086959     -0.197649      2.762725
Ti      13.72715      5.87077      2.50057        -0.246198     -0.357474     -0.025298
Ti      13.77268      5.77064     15.54621        -0.485258      0.725166      1.974821
Ti       1.93589      5.87123      6.81485        -0.316251      0.077766      0.232095
Ti      13.62901      5.89424      6.70769        -0.428547     -0.767541      0.762661
Ti       1.92739      5.81478     11.27184        -0.241559      0.464246      1.735127
Ti      13.64841      5.87438     11.15839         0.559619     -0.640939     -0.029385
Ti       1.97829      9.69975      2.25929        -0.479220      0.608070      0.899715
Ti       2.00801      9.72409     15.54810         0.388395      0.103223      0.603217
Ti      13.64800      9.72244      2.07492        -0.128358     -0.195368      2.804969
Ti      13.65161      9.62872     15.46140         0.155976      0.960940      0.858785
Ti       1.80320      9.70133      6.83242         0.254144      0.636467      2.233033
Ti      13.63929      9.73592      6.78214         0.073751     -0.758448     -0.049796
Ti       1.94963      9.83970     11.19308        -0.612576     -1.249890      2.410348
Ti      13.57569      9.67637     11.13919         0.281724      0.662852      1.413102
Ti       5.79751      1.98095      2.40691        -0.626091     -0.442324      0.388292
Ti       5.88857      1.91559     15.73074        -0.767501     -0.545665      0.644546
Ti       5.78869     13.56168      2.34128        -0.641139     -0.008475      1.196428
Ti       5.77148     13.57858     15.61000         0.613568      0.612226      0.755333
Ti       5.80812      1.93875      6.77079        -0.145694     -0.013685      1.263217
Ti       5.80756     13.63247      6.80202        -0.178466      0.089206      3.858840
Ti       5.85305      1.91059     11.15459         0.948953      0.065871      3.481947
Ti       5.81725     13.68990     11.10967         1.044370      0.336914      2.024873
Ti       5.87042      5.79937      2.58786         0.079020      0.536159      2.435213
Ti       5.93656      5.85715     15.43353        -0.135045     -0.119604      1.746491
Ti       5.82077      5.85047      6.81004         0.499248      0.750295     -0.409487
Ti       5.82487      5.66454     11.38578         0.093522      1.303134      0.758016
Ti       5.85998      9.71339      2.42117         0.530018     -0.939406      0.985755
Ti       5.92308      9.74774     15.48624        -0.977291     -0.326186      0.048130
Ti       5.77747      9.86433      6.81167         0.833153     -1.192583      2.053391
Ti       5.81528      9.83938     11.19337         0.137957     -1.003033      0.949353
Ti       9.66937      1.88817      2.41198         0.961009     -0.359798      1.133450
Ti       9.82586      1.94246     15.63606        -0.679727     -0.307972      2.095621
Ti       9.66575     13.54739      2.30291         0.417042      0.247975      1.101309
Ti       9.67977     13.56419     15.57173        -0.073656      0.054538      0.409490
Ti       9.71601      1.82591      6.74759        -0.039973      0.881042      2.203539
Ti       9.69410     13.55011      6.79606        -0.201624      1.153036      1.250054
Ti       9.78915      1.95413     11.11759        -0.529850      0.650302      1.455953
Ti       9.73289     13.74828     11.13066        -0.428931     -0.669418      1.552001
Ti       9.72025      5.71617      2.35141         0.388720      0.488676      0.723525
Ti       9.79178      5.82428     15.64703         0.068664     -0.616950      0.876463
Ti       9.75181      5.78743      6.73083        -0.143223      0.216582      0.544625
Ti       9.78314      5.99647     11.12638        -0.099451     -1.720000      1.588633
Ti       9.77957      9.68681      2.32296        -0.484973     -0.201860      0.991461
Ti       9.72541      9.72435     15.52086         0.556369      0.385845      1.086110
Ti       9.71591      9.74451      6.74350        -0.650583     -0.722363      3.637458
Ti       9.69188      9.79132     11.07031         0.382237      0.093054      1.812936
O       1.81174      1.84181      0.57600        -0.031145      0.042101     -1.173474
O       1.94185      1.76353     13.97429         0.393980      0.345718     -2.022092
O       1.93396     13.40766      0.61347         0.008076      0.292709     -1.569777
O       1.81510     13.82605     13.85226         0.210279     -0.608837     -2.067885
O      13.55832      1.82605      0.84368         0.190569      0.285908     -3.041612
O      13.67859      1.97730     13.78334        -0.301173      0.363334     -2.841941
O      13.52233     13.82043      0.63464        -0.131107     -0.091132     -2.139997
O      13.53687     13.61920     13.78002         0.097543      0.180351     -1.684452
O       1.95854      1.96409      5.09621         0.135065      0.125539     -0.385631
O       1.95322     13.48928      4.94740        -0.418854      0.231656     -0.821376
O      13.67654      2.05112      5.03002        -0.328435     -0.783067     -1.416142
O      13.61092     13.53778      4.96497         0.045655     -0.176188     -1.920788
O       1.91858      1.99253      9.35834         0.113455      0.139017     -0.070018
O       1.81887     13.60809      9.53624         0.066863      0.192508     -1.919470
O      13.60243      1.95782      9.37863         0.199250     -0.310751     -2.241768
O      13.69444     13.67513      9.44098        -0.146466      0.184179     -0.935549
O       2.06489      5.81435      0.86069        -0.132470      0.082361     -2.402535
O       1.98809      5.93395     13.83776        -0.196596     -0.037446     -1.941661
O      13.85084      5.77242      0.77263        -0.016130     -0.189352     -1.299554
O      13.69314      5.79438     13.86235        -0.337807     -0.145702     -2.150262
O       1.97720      5.86618      5.06554        -0.044568      0.096374     -0.369863
O      13.50342      5.87956      4.96932         0.413691      0.422871     -0.534612
O       1.83277      5.77404      9.59503         0.456773     -0.449190     -2.378151
O      13.59750      5.85404      9.43223         0.086836     -0.092349     -1.196985
O       2.03306      9.67726      0.53615         0.042946      0.073213     -1.149326
O       2.02319      9.62717     13.82953        -0.136284      0.134419     -1.417918
O      13.65151      9.71067      0.37512         0.040784     -0.075138     -2.111159
O      13.63728      9.71594     13.74172        -0.048169     -0.188887     -1.251342
O       1.56045      9.71237      5.13964         0.498437      0.102693     -1.634115
O      13.65390      9.69912      5.03118         0.462883      0.514925     -0.130482
O       1.97573      9.85861      9.53338         0.027685     -0.187349     -2.837095
O      13.59921      9.73558      9.44214        -0.155817      0.126899     -1.709317
O       5.79152      1.93197      0.67801         0.444702     -0.145136     -0.695626
O       5.80352      1.81833     14.06844        -0.055567      0.323981     -3.050500
O       5.72862     13.56029      0.64623         0.203577     -0.282331     -2.012923
O       5.93361     13.56503     13.90512        -0.140261     -0.052022     -1.778175
O       5.72764      1.91295      5.06257         0.419989     -0.113882     -1.725082
O       5.71047     13.57112      5.16057         0.292245     -0.038588     -4.032481
O       5.86016      2.01523      9.52182        -0.411771      0.274001     -4.382850
O       5.95331     13.67870      9.44083        -0.456758      0.092886     -2.195471
O       5.73508      5.91283      0.95769        -0.149013      0.071590     -4.139194
O       5.96407      5.84632     13.71939        -0.137023     -0.051320     -0.789596
O       5.99223      5.94468      5.07094        -0.447025     -0.169687     -0.019622
O       5.83194      5.74264      9.69907        -0.275431     -0.310003     -2.500628
O       5.97104      9.61435      0.70149        -0.435182      0.061096     -1.751367
O       5.97404      9.77247     13.73491         0.193476     -0.004475     -0.756328
O       5.87072      9.79442      5.14076        -0.366777      0.164128     -2.195765
O       5.86855      9.74804      9.48971        -0.562080      0.195437     -1.810566
O       9.73571      1.74722      0.70345        -0.224887      0.284560     -1.333901
O       9.72682      2.02447     13.98269         0.118001      0.015539     -3.007002
O       9.76973     13.52325      0.57707        -0.073145      0.221559     -0.759958
O       9.68163     13.55063     13.84904        -0.138183      0.188465     -1.549519
O       9.70207      1.83305      5.05055        -0.352266     -0.016341     -2.126376
O       9.55443     13.56005      5.07435         0.491040      0.124834     -1.341101
O       9.73864      2.03884      9.43569         0.257175     -0.466015     -2.467051
O       9.68678     13.69989      9.43895         0.118951      0.000761     -2.132788
O       9.82243      5.73921      0.61610        -0.273558      0.220593     -0.638676
O       9.86353      5.84636     13.93415         0.287456     -0.296603     -1.941687
O       9.73072      5.81187      4.98435        -0.313814      0.095583     -0.563412
O       9.92496      5.79292      9.45975        -0.136927      0.330419     -2.275942
O       9.75923      9.70971      0.62263        -0.362537     -0.268995     -2.009392
O       9.65903      9.72989     13.81647        -0.006591     -0.202052     -1.421978
O       9.69077      9.76790      5.10813        -0.041559      0.323153     -3.934383
O       9.69931      9.74878      9.39064         0.240454      0.121640     -2.866397
O       3.78560      1.93632      2.66221         1.241590      0.013924      0.697368
O       3.90110      1.87610     16.03526        -0.364870     -0.269459      0.902353
O       3.78643     13.50913      2.77354         0.783303      0.053392      0.371104
O       3.88888     13.55988     15.91592        -0.469878      0.206009      0.463431
O      15.54310      1.73249      2.81264         0.150079      0.363499      0.266210
O       0.01466      2.02058     15.81045        -1.088025     -0.199235      0.996979
O      15.49291     13.51673      2.59221         0.356349      0.595941      0.673470
O       0.00836     13.53083     16.05911        -1.408740      0.066551     -0.079463
O       3.85842      2.06273      7.14450         0.353551     -0.270304      0.847724
O       3.85698     13.67182      7.14670        -0.599541     -0.114900      0.497717
O      15.55494      1.99465      7.07291        -0.026739     -0.074782      0.920237
O       0.02619     13.57949      7.20444        -0.574990      0.649979     -0.566545
O       3.89527      1.87584     11.61748        -0.836837      0.260409      0.128140
O       3.87899     13.66131     11.56297        -0.236886     -0.086727      0.129882
O       0.05071      1.94677     11.60768        -0.316166      0.196852     -0.148801
O      15.49039     13.72887     11.65823         0.643309     -0.724919     -0.017381
O       3.86635      5.76023      2.99826        -0.074812      0.388131      0.376821
O       3.94123      5.84692     15.98255         0.265249     -0.081558      0.015107
O       0.02397      5.84422      2.95728         0.105351      0.021583     -0.023774
O       0.07879      5.80754     15.99849         0.198592     -0.130468      0.286771
O       3.90377      5.85280      7.23224        -0.233383      0.050409      0.317617
O      15.57560      5.90413      7.19434        -0.638738     -0.285773      0.060979
O       3.90295      5.79988     11.71029        -0.610311     -0.168348      0.132553
O      15.54505      5.77071     11.53672         0.770524     -0.007121      0.821309
O       3.83240      9.61291      2.80941         0.289032      0.557307      0.114213
O       3.98809      9.69285     15.83824        -0.140967      0.003247      0.819270
O      15.51919      9.67539      2.59542         0.545355      0.444200      0.380313
O       0.04982      9.69534     15.73551        -0.417434      0.236433      0.991220
O       3.74349      9.79780      7.25079         1.001603     -0.370114     -0.031580
O      15.53308      9.69516      7.39116         0.143111      0.330342     -0.331286
O       3.86372      9.93124     11.52519         0.594391     -0.474156      0.534007
O      15.56915      9.75980     11.52323         0.047412      0.343862      0.731125
O       7.77645      1.83085      2.84615        -0.450389      0.130993      0.319186
O       7.78152      1.97146     16.00134         0.697908     -0.227113      1.233846
O       7.75239     13.55638      2.69551        -0.202485     -0.080503      0.472296
O       7.81295     13.54410     16.01045        -0.770149     -0.364427      0.813952
O       7.71462      1.97196      7.22729         0.164732     -0.161546     -0.409812
O       7.78377     13.66100      7.14264        -0.449322      0.250625      0.430558
O       7.87877      1.97275     11.47042        -0.935636     -0.194516      0.998431
O       7.80422     13.77935     11.47076        -0.393063     -0.461184      0.843343
O       7.77764      5.93128      2.78656         1.177293     -0.639492      0.130957
O       7.87875      5.83170     15.86210        -1.297779     -0.122585      0.689005
O       7.76325      5.88738      7.33053        -0.197765      0.081545     -0.288679
O       7.84902      5.73774     11.51280         0.413118      0.712639      0.623992
O       7.77733      9.71588      2.64111         0.475714     -0.000480      0.901668
O       7.85045      9.77413     15.95282        -0.540788     -0.868269      0.699785
O       7.74149      9.67702      7.19794         0.373384      0.423936      0.138641
O       7.80058      9.74518     11.38539         0.015943     -0.231219      1.059648
O      11.62189      1.94692      2.78362        -0.853002     -0.318453      0.678933
O      11.73829      1.90078     15.97976         0.128373      0.041640      0.265380
O      11.61407     13.50791      2.83288        -0.117641      0.433175      0.083201
O      11.65519     13.59373     15.92020         0.056032      0.584164      0.532460
O      11.61560      1.88387      7.13571         0.336404     -0.091285      0.193406
O      11.71304     13.64956      7.15868        -0.284932     -0.136189     -0.361757
O      11.71917      1.99719     11.46326         0.296841     -0.402309      0.632968
O      11.65416     13.74386     11.61981         0.208749     -0.220025     -0.117900
O      11.73237      5.74070      2.75369        -0.820768      0.555733      0.375954
O      11.76951      5.80838     16.07205         0.532694     -0.170625      0.047882
O      11.64943      5.82075      7.03281         0.067663      0.423183      0.782185
O      11.76194      5.77713     11.52628        -0.468000      0.338462      1.170397
O      11.65646      9.79654      2.55425         0.480647     -0.159250      0.640242
O      11.70882      9.67168     15.82482         0.083075     -0.101831      0.611650
O      11.74031      9.71358      7.09773        -0.979210      1.047874      0.523715
O      11.65683      9.81110     11.46866         0.584578     -0.392039      0.518165
O       1.82161      3.77836      2.76388         0.223644      0.685531      0.405095
O       2.06355      3.85460     16.02235        -0.363404      0.941336     -0.007408
O       2.02091     15.53540      2.74235        -0.764934     -0.647519      0.139361
O       1.78864     15.51443     16.04421         0.610913      0.090580      0.652707
O      13.56545      3.92455      2.88117         0.744847     -0.813444      0.137855
O      13.69738      3.88664     15.99011        -0.140756     -0.266063      0.279440
O      13.46975     15.55355      2.83500         0.304762     -0.830720      0.754043
O      13.69232     15.58731     15.79375         0.230062      0.332087      0.522915
O       1.88080      3.98427      7.21949         0.251211     -0.341328      0.467503
O       1.92120      0.04162      7.07824        -0.022580     -0.948534      0.600958
O      13.48347      3.92167      6.95331         0.671577      0.187217      1.013735
O      13.67482     15.57073      7.08071        -0.047112     -0.398127      0.247157
O       1.94623      3.82145     11.73703         0.261341      0.260373     -0.135427
O       1.82553      0.01881     11.56978         0.814650     -0.171843      0.035625
O      13.72176      3.84175     11.52457        -0.287147      0.227186      0.627242
O      13.61370      0.05860     11.60756        -0.102289     -0.303618     -0.105754
O       1.87083      7.84928      2.76543         0.278554     -0.771959      0.633484
O       1.99937      7.79346     16.06923        -0.031833     -0.695411      0.003966
O      13.63652      7.82502      2.63321        -0.499262     -0.069046      0.464825
O      13.80317      7.76131     15.81347        -0.548781     -0.485263      0.577702
O       1.87736      7.74135      7.33799         0.318565      0.836720     -0.103805
O      13.58854      7.85925      7.16380         0.172798     -0.869729      0.209449
O       1.84970      7.76384     11.51855         0.678498      0.273377      0.595863
O      13.71658      7.79074     11.46298        -0.512891     -0.069756      0.748505
O       1.91470     11.59386      2.73818        -0.330227     -0.010486      0.413007
O       2.00629     11.61921     15.96102        -0.276322      0.413618      0.117536
O      13.57145     11.63197      2.49035         0.039267      0.244059      0.648575
O      13.57330     11.70175     15.78478         0.490751     -0.402706      1.003568
O       1.90960     11.65063      7.19536        -0.238240      0.665846     -0.031479
O      13.66005     11.75103      7.26643         0.007424     -0.489856     -0.634973
O       1.96498     11.70215     11.57790        -0.622670      1.163781      0.817741
O      13.57760     11.74788     11.52490         0.246705     -0.276928      0.350672
O       5.90988      3.83428      2.77019        -0.150170     -0.479635      0.668382
O       5.85063      3.85695     16.05345        -0.000428      1.417147      0.231927
O       5.80806     15.43838      2.73748        -0.120692      0.918499      0.712725
O       5.92984     15.50356     15.91543        -0.144328     -0.100187      1.369119
O       5.83318      3.92813      7.10211        -0.042340     -0.083119      0.491910
O       5.76112      0.01166      7.23746         0.099134      0.201089     -0.010984
O       5.80662      3.78298     11.71297         0.061656      0.381643      0.482631
O       5.81311      0.08020     11.49806         0.078351     -1.688526      0.674592
O       5.84592      7.80787      2.85880        -0.483067      0.145789      0.866487
O       5.80800      7.76180     15.79376         0.807217     -0.359979      0.658302
O       5.79261      7.86318      7.27499        -0.430010     -0.469019      0.306881
O       5.79236      7.81889     11.50718         0.162728      0.262187      1.153417
O       5.78019     11.63578      2.82306        -0.020804      0.082878      0.249670
O       5.84945     11.59406     15.91989         0.176464      0.512269      0.849421
O       5.85264     11.72335      7.28129        -0.266030     -0.003567      0.107146
O       5.96201     11.76898     11.45567        -0.410985      0.058429      0.676384
O       9.77012      3.82655      2.83818        -0.910317     -0.064441     -0.074137
O       9.74138      3.82806     16.12488         0.273372      0.358898      0.220585
O       9.68096     15.47007      2.76988         0.282709      0.124065      0.470080
O       9.58431     15.50696     15.90038         0.731816      0.771618      0.949467
O       9.64912      3.92570      7.06628         0.178075     -0.682013      0.393767
O       9.65733     15.58595      7.19039         0.289817     -0.384840     -0.003980
O       9.80639      3.87619     11.42650         0.141055      0.630859      1.377388
O       9.70515     15.59723     11.63107         0.608730      0.533147      0.247474
O       9.77588      7.71055      2.74853         0.006452      0.476763      0.033074
O       9.87086      7.71909     15.90506        -0.512041      0.814779      0.844543
O       9.79099      7.80248      7.10442        -0.372891      0.113793      0.342396
O       9.92725      7.84858     11.42710        -0.550593     -0.429822      0.692442
O       9.66532     11.66138      2.75746         0.047686     -0.289004      0.541075
O       9.73432     11.65400     15.88913         0.308910     -0.717112      0.715163
O       9.55997     11.72833      7.15803         0.966157     -0.886589      0.348021
O       9.77271     11.70057     11.45160        -0.411069      0.566276      0.376686
