  # total energy = -7879.42067738 
CRSYTAL
PRIMVEC
    15.6000000000000000    0.0000000000000000    0.0000000000000000
     0.0000000000000000   15.6000000000000000    0.0000000000000000
     0.0000000000000000    0.0000000000000000    17.640000000000000
PRESSURE
-2.91941 -3.13415 2.05709 0.059059 -0.453229 -0.035936
PRIMCOORD
320 1
Pb       3.91082      3.91893      4.26654        -0.729519     -0.115000      0.403753
Pb       3.77903      3.72616     17.55134         0.447375     -0.073102      0.235512
Pb       4.07121      0.09641      4.38117        -0.684154     -0.037920     -0.310738
Pb       3.99425     15.51060     17.48785         0.135149      0.030339     -0.246189
Pb       0.00875      3.88652      4.30081        -0.078287     -0.577371      0.115255
Pb      15.50288      3.79575     17.58256         0.298654      0.129001     -0.356113
Pb      15.59494     15.57920      4.30804        -0.019324      0.084809      0.194141
Pb       0.19118     15.50505     17.56160        -0.162402      0.004462      0.324321
Pb       3.93786      3.81192      8.71388        -0.239369      0.156316      0.143101
Pb       3.86258     15.57721      8.74278        -0.244431     -0.020615      0.348746
Pb       0.03594      3.78435      8.65643        -0.225385      0.105498      0.463121
Pb       0.06115     15.55215      8.95526         0.050118      0.250411     -0.460483
Pb       3.70515      4.09933     13.06840         0.370391     -0.210930      0.299684
Pb       3.84742      0.04041     13.19109         0.275556     -0.572332     -0.098167
Pb      15.50513      3.82282     13.21808        -0.011425     -0.020805     -0.034059
Pb       0.01513      0.00728     13.12650         0.003965     -0.177488      0.122633
Pb       3.81929      7.79383      4.16010         0.180188     -0.158010      0.875475
Pb       3.72831      7.80265     17.55273         0.523043     -0.102406      0.342922
Pb      15.48799      7.71746      4.42704         0.033293      0.196727      0.345124
Pb      15.43102      7.76748      0.02380         0.721049      0.139376     -0.281852
Pb       3.83394      7.76259      8.74371         0.290511      0.170382     -0.165798
Pb       0.07734      7.77051      8.64180        -0.455273      0.146566      0.507796
Pb       3.86404      7.88439     13.17188         0.392112     -0.606006     -0.259716
Pb      15.36664      7.83186     13.18139         0.537706     -0.023052     -0.020277
Pb       3.89154     11.64271      4.29401        -0.092823     -0.135697     -0.578161
Pb       3.92722     11.63647     17.54686        -0.403279      0.415359      0.178837
Pb      15.57376     11.58942      4.39346         0.371391      0.658950      0.660197
Pb      15.58335     11.55988      0.12466         0.469909      0.285631     -0.113977
Pb       3.90806     11.70826      8.62148        -0.348676     -0.390917      0.796955
Pb       0.03885     11.56800      8.78241        -0.587637      0.263138      0.282308
Pb       3.91875     11.59123     13.23262         0.159237      0.583969      0.017836
Pb       0.13287     11.59485     13.23216        -0.640757      0.569569     -0.207274
Pb       7.82794      4.06464      4.28676        -0.301596     -0.720924      0.153882
Pb       7.83101      3.79607     17.47152         0.168749      0.135312      0.666769
Pb       8.00263     15.59496      4.32752        -0.357809      0.763987     -0.208258
Pb       7.89510     15.39659     17.61964        -0.574802      0.649498     -0.471972
Pb       8.03198      3.90026      8.65812        -0.801909     -0.125647      0.650485
Pb       7.75954     15.51030      8.64246        -0.549229      0.589082      0.742383
Pb       7.62798      3.83871     13.01482         0.368171     -0.077975      0.673144
Pb       7.69802     15.45716     13.18846         0.082732      0.174298     -0.182588
Pb       7.66072      7.85893      4.31116         0.062955     -0.085356      0.277215
Pb       7.82415      7.79160     17.49625        -0.337114     -0.072079      0.267832
Pb       7.88161      7.79294      8.75061        -0.232063      0.282302      0.152954
Pb       7.84447      7.67561     13.13735        -0.532824      0.224794      0.029163
Pb       7.74818     11.72590      4.32730        -0.637441     -0.249475      0.330223
Pb       7.76243     11.75832      0.00418        -0.229458     -0.370174     -0.559538
Pb       7.73441     11.64625      8.82788         0.446255     -0.347834      0.014797
Pb       7.79309     11.51292     13.21311         0.376631      0.300408     -0.196629
Pb      11.55991      3.97128      4.33223         0.383417     -0.245719      0.109391
Pb      11.68619      3.98879     17.48423        -0.468052     -0.455079     -0.170626
Pb      11.78931      0.04584      4.35384        -0.255153     -0.350787      0.238449
Pb      11.77737      0.02380     17.51049        -0.176308      0.130968      0.233166
Pb      11.72551      3.91139      8.75734        -0.034845     -0.365370      0.323814
Pb      11.59900     15.51633      8.81318         0.069197      0.346291     -0.228497
Pb      11.57219      3.90412     13.18122         0.050804     -0.405799      0.649205
Pb      11.74646     15.58450     13.20373        -0.463451      0.503128      0.035525
Pb      11.64795      7.84717      4.33778        -0.025548     -0.096654      0.323357
Pb      11.79476      7.89182     17.59536        -0.769990      0.065485      0.047217
Pb      11.81243      7.74826      8.76743        -0.301792      0.282763      0.302315
Pb      11.67140      7.86707     13.19207        -0.104117     -0.565125      0.096585
Pb      11.75475     11.84577      4.51213        -0.136032      0.211435      0.316335
Pb      11.61396     11.81990      0.06456         0.418947     -0.458106     -0.270136
Pb      11.59706     11.74814      8.72684        -0.008241     -0.485954      0.649297
Pb      11.83195     11.70498     13.18705        -0.707562     -0.179492      0.232285
Ti       1.95222      1.88857      2.34804         0.001401     -0.339415      1.396420
Ti       1.94734      1.92294     15.49863         0.404208     -0.787186      0.981159
Ti       1.91846     13.60800      2.48627        -0.446929      0.268463     -0.660840
Ti       1.93826     13.57622     15.61124         0.497762     -0.331692     -0.178228
Ti      13.54471      2.00499      2.33488         1.101271     -0.926117      0.208947
Ti      13.65125      1.90467     15.67922        -0.178116      0.309058     -1.154124
Ti      13.62788     13.66918      2.42656         0.195757     -0.449248      0.819606
Ti      13.73963     13.58616     15.69887        -0.058654      0.502834     -1.097062
Ti       1.91815      1.93111      6.70664        -1.133616      0.061976      2.536284
Ti       1.76064     13.61444      6.91444         0.301549      0.705602      0.492511
Ti      13.53286      1.88774      6.77420         0.630125      0.354268      2.410895
Ti      13.55660     13.68173      6.99963        -0.170322     -0.220052      0.046228
Ti       1.96961      1.92552     11.24331        -0.597699      0.028181      0.441301
Ti       1.92438     13.54560     11.25321         0.168665      0.639324     -0.342721
Ti      13.60748      1.97036     11.27018        -0.492474      0.411828     -0.311956
Ti      13.62475     13.71225     11.22991         0.335033     -1.106882      0.430899
Ti       1.80748      5.87356      2.37065         1.131877     -1.008465     -0.136657
Ti       1.90975      5.75977     15.69542        -0.609944      0.815204     -0.071772
Ti      13.61701      5.83679      2.38166        -0.589292      0.076543      1.050774
Ti      13.60950      5.89450     15.61126        -0.279547     -0.661716      0.867680
Ti       2.01434      5.83291      6.80591        -0.484947     -0.628057      0.707548
Ti      13.65709      5.84719      6.90830        -0.022498     -0.938831     -1.551643
Ti       1.81223      5.89582     11.15745         1.018358     -0.247329      1.097530
Ti      13.66981      5.80524     11.27584        -1.697912      0.158629     -0.087915
Ti       1.81649      9.68738      2.45308         0.433504      0.717828      1.077905
Ti       1.86785      9.66130     15.61170        -0.235915      1.187166      0.903827
Ti      13.50614      9.81639      2.56856         0.753391     -0.369270      1.145381
Ti      13.61432      9.84237     15.63314        -0.270146     -0.135875      1.928578
Ti       1.90845      9.72808      6.75291         0.519722     -0.016410      1.623265
Ti      13.56536      9.77355      6.77020         0.435543      0.412325      1.721095
Ti       1.84809      9.71940     11.16906         0.785569     -0.372948     -0.913741
Ti      13.59046      9.77238     11.13774        -0.320527      0.002935     -0.734933
Ti       5.89839      1.96660      2.32679        -0.209452     -0.684409      0.826760
Ti       5.84263      1.94930     15.47943         0.490301     -1.118336      0.761002
Ti       5.81333     13.69326      2.34583        -0.961254     -0.362244     -0.678157
Ti       5.84571     13.56955     15.56787        -0.050295      0.677553      1.381236
Ti       5.76121      1.92524      6.77085         0.926690     -0.050126      0.791147
Ti       5.74359     13.59636      6.75203         0.094651      0.139312      0.963955
Ti       5.76046      1.94198     11.16569         0.329642     -0.994400      0.059064
Ti       5.83905     13.60059     11.22660        -0.327985      0.262623      0.911577
Ti       5.80100      5.79679      2.27329        -0.493765      0.170969      1.573215
Ti       5.71456      5.73663     15.71225         1.094406      0.867383      1.782660
Ti       5.81079      5.71908      6.76009        -0.054555      1.142864      1.554510
Ti       5.82713      5.74849     11.07132        -0.633589      1.456093      0.887430
Ti       5.84261      9.70307      2.28858        -1.449054      0.588834      1.764910
Ti       5.79954      9.67949     15.67337         0.540157     -0.074302      0.817696
Ti       5.83606      9.64080      6.78002        -0.293974      0.463450      1.214275
Ti       5.85033      9.69140     11.23635         0.236292     -0.192880      0.535480
Ti       9.77967      2.03298      2.33701        -0.541080     -0.501285     -0.323223
Ti       9.63962      1.85323     15.60669         0.862041      0.664917     -0.511592
Ti       9.66881     13.61597      2.43840         1.432153      1.612371     -0.409725
Ti       9.79741     13.52748     15.70572        -0.548925      0.896788      0.145448
Ti       9.68996      1.96281      6.73422         0.111654      0.163195     -0.409330
Ti       9.56769     13.63433      6.82269         2.222807     -0.603861      2.100891
Ti       9.63608      1.91160     11.26356         0.837899     -0.285098      1.418596
Ti       9.79099     13.63680     11.30865        -1.557801     -1.263456     -0.493022
Ti       9.74110      5.95964      2.34969        -0.505752     -0.125047      0.918315
Ti       9.65556      5.86953     15.64113         1.194767     -0.792267     -1.070645
Ti       9.74044      5.92623      6.74883         0.109330     -0.498979      2.838994
Ti       9.73627      5.75288     11.29735         0.325455      0.966695      0.594839
Ti       9.63263      9.86360      2.45369         0.238109     -1.130045      0.335327
Ti       9.69905      9.71805     15.64954         0.361856      0.849055      1.340779
Ti       9.75336      9.71526      6.75089        -0.569788      0.709009      1.080151
Ti       9.81997      9.66905     11.20400        -1.798716      0.980209     -0.526775
O       2.05322      1.75560      0.64686         0.116013      0.385749     -1.821880
O       2.00037      1.95984     13.78261        -0.356202      0.091095     -1.056437
O       1.78350     13.63925      0.74575         0.185801     -0.023661     -0.574011
O       1.94093     13.54382     13.88341        -0.418193     -0.093350     -0.888786
O      13.64804      1.94774      0.60832        -0.091225      0.073433     -1.184968
O      13.70814      2.00020     13.92416         0.083191     -0.641858     -0.104071
O      13.69191     13.62824      0.72119        -0.120838     -0.267792     -1.350955
O      13.67188     13.56951     13.90974        -0.084325      0.114801      0.493088
O       1.82864      2.00852      5.03476         0.179254     -0.195782     -1.890862
O       1.72162     13.69603      5.22212         0.358332     -0.254997     -1.364749
O      13.49585      1.88641      5.09204         0.029394      0.336991     -2.242477
O      13.42310     13.76429      5.30651         0.215961     -0.382873     -1.888691
O       1.91372      1.84508      9.53177         0.111878      0.018443     -0.806046
O       1.74279     13.66881      9.50059         0.513997      0.074614     -0.185095
O      13.59200      2.01375      9.56136        -0.060568     -0.181682     -0.847629
O      13.49942     13.62725      9.51138         0.166491      0.420514     -0.522703
O       1.72952      5.84717      0.65477         0.207679      0.188502     -0.996549
O       1.92289      5.81459     13.98461         0.034597     -0.170419     -1.066362
O      13.50790      6.04360      0.68151         0.371610     -0.316024     -0.970789
O      13.59538      5.97702     13.91562         0.284703      0.067717     -1.241523
O       1.95708      5.75585      5.11452        -0.401264      0.082874     -1.947172
O      13.67243      5.77692      5.12528        -0.104088     -0.057342      0.310629
O       1.96611      5.88806      9.46982        -0.161772     -0.025215     -1.443689
O      13.57814      5.84317      9.54256         0.047252     -0.076106     -0.425775
O       1.75698      9.83026      0.77369         0.045518     -0.464560     -2.023103
O       1.77943      9.75610     13.86671         0.130288     -0.332742     -0.439308
O      13.55847      9.83447      0.85645        -0.048210     -0.140204     -0.769940
O      13.51613      9.79409     13.94145         0.580755     -0.051192     -1.299867
O       1.93332      9.66787      5.07543        -0.232064      0.203237     -2.259309
O      13.62583      9.68727      5.05749        -0.273088     -0.074809     -1.232341
O       2.03797      9.66700      9.38357        -0.539932      0.148628      1.237158
O      13.48730      9.76854      9.37222         0.383403     -0.211161      0.556737
O       5.86936      1.90328      0.61617        -0.438961      0.231474     -0.589644
O       5.88479      2.01394     13.74753         0.164386     -0.027615     -0.499626
O       5.80640     13.70804      0.57721         0.214997      0.004576      0.348998
O       5.76040     13.53571     13.89276         0.372355      0.144786     -2.304733
O       5.75025      1.81567      5.07136         0.085681      0.292288     -1.302552
O       5.75315     13.58381      5.03678         0.006064     -0.115704     -0.886549
O       5.74093      1.93810      9.43592        -0.146766     -0.212480     -0.739521
O       5.77002     13.68929      9.50192         0.027739     -0.312020     -0.659089
O       5.80442      5.85366      0.59053        -0.124249     -0.256961     -1.269022
O       5.74568      5.87268     14.05961         0.290122     -0.212945     -2.535425
O       5.74479      5.74535      5.07931         0.345609      0.065131     -2.015713
O       5.80520      5.73352      9.37072        -0.243949      0.351020     -1.194993
O       5.76025      9.75192      0.60944         0.345079     -0.166599     -1.656491
O       5.73653      9.66638     13.97237        -0.154287     -0.088175     -1.166364
O       5.92619      9.79784      5.08366        -0.006420      0.026087     -1.563863
O       5.86635      9.70619      9.48791        -0.083417      0.055078     -0.096875
O       9.80274      2.08889      0.59212         0.041005     -0.383999      0.044053
O       9.61272      1.93899     13.85391        -0.144076     -0.102839      0.106775
O       9.74546     13.77850      0.69359        -0.079251     -0.717358     -0.347042
O       9.71509     13.46159     14.01334         0.188449      0.201691     -1.389956
O       9.64314      1.98860      4.95997         0.207089     -0.008973      0.425606
O       9.76180     13.44833      5.17549        -0.297610      0.410490     -3.195402
O       9.72697      2.01608      9.58385        -0.130277     -0.433632     -2.049647
O       9.77723     13.60031      9.55705        -0.124290      0.488473     -0.202299
O       9.85529      5.85625      0.68531        -0.123820      0.254656     -1.802891
O       9.58348      5.79947     13.88059         0.043949      0.105239     -0.154113
O       9.68784      5.82678      5.09701         0.046893     -0.002262     -3.516999
O       9.80094      5.87677      9.60057        -0.036165     -0.078109     -1.455626
O       9.67476      9.74853      0.75435         0.141391      0.361823     -1.155636
O       9.77359      9.89492     13.98494         0.040357     -0.322454     -1.720227
O       9.58943      9.60554      5.02975         0.079888      0.585053     -0.618243
O       9.58525      9.71168      9.44213         0.450194     -0.382640      0.243584
O       3.89333      1.92971      2.89380        -0.162856     -0.156930     -0.414747
O       3.99050      1.96703     15.84778        -1.158548     -0.089499      0.636719
O       3.78330     13.60092      2.67573         1.464753     -0.057835      0.846720
O       3.91681     13.63804     15.91989        -0.332157     -0.432786      0.891636
O      15.45827      1.85531      2.77496         0.381948      0.307624      0.086354
O       0.10061      1.95475     15.90617        -0.553246      0.029537      0.580886
O      15.56468     13.62665      2.93648        -0.370864     -0.049837      0.055176
O       0.06223     13.67738     16.03675        -0.395126     -0.417230      0.142307
O       3.79730      1.79843      7.20662         0.704493      0.268342     -0.206802
O       3.79655     13.67749      7.29291         0.622849      0.102333     -0.555099
O      15.53713      2.05090      7.18091         0.176566     -0.484576     -0.210078
O      15.48616     13.55274      7.39660        -0.217283      0.524159      0.100117
O       3.86258      1.95010     11.62738        -0.158192      0.020666      0.026936
O       3.80330     13.53003     11.66968         0.489508     -0.011288     -0.106070
O      15.57664      1.95860     11.57474         0.289044     -0.125495      0.742463
O      15.53629     13.54536     11.59230        -0.272266      0.539202      0.453503
O       3.76618      5.85450      2.67714         0.552611     -0.130536      0.243062
O       3.85455      5.87641     15.95336        -0.569125     -0.186179      1.094831
O      15.53365      5.79374      2.79482        -0.465701      0.040123      0.289316
O       0.01900      5.85591     15.97477        -1.286615      0.042263      0.720640
O       3.88165      5.80049      7.11882         0.396100      0.368666      0.816399
O      15.58209      5.81164      7.22858         0.036565     -0.082733      0.216894
O       3.86718      5.96737     11.63295        -0.453677     -0.614235     -0.159542
O      15.49363      5.89143     11.76434         0.350543     -0.286169     -0.411805
O       3.79972      9.69993      2.67876         0.877428     -0.041127      0.672604
O       3.84409      9.74788     16.19942        -0.336395     -0.546612     -0.767352
O      15.53598      9.78944      2.92771        -0.735455     -0.680068     -0.049503
O      15.58156      9.70817     16.22948        -0.740453      0.265282     -0.714460
O       3.82783      9.77616      7.00232         0.477537      0.225374      0.884493
O      15.56956      9.75653      7.19557        -0.371577     -0.219589      0.015806
O       3.89398      9.82035     11.73036        -0.927135     -0.854225     -0.552874
O      15.49160      9.71718     11.60231         0.995876      0.030796     -0.108938
O       7.81860      1.86741      2.66472        -0.039709      0.238715      0.564211
O       7.80203      1.92007     16.08657        -0.192320     -0.060873     -0.370738
O       7.73824     13.70597      2.75779         0.469789     -0.066782      0.235286
O       7.78430     13.55546     16.08541         0.407847      0.256597      0.342960
O       7.77943      2.04330      7.18688        -0.096940      0.082703      0.126880
O       7.78388     13.52499      7.21132        -2.060249      0.242377      0.143439
O       7.70283      1.90563     11.54001         0.079840      0.096364      0.372557
O       7.75778     13.61932     11.54034        -0.207088      0.138084      0.652942
O       7.65569      5.74295      2.68354         0.979007      0.379464      0.275552
O       7.86320      5.80510     16.07974        -1.269779      0.371226      0.366556
O       7.79949      5.84449      7.19808        -0.114771      0.017774     -0.104330
O       7.72227      5.91857     11.45293         0.123331     -0.396042      0.661166
O       7.65061      9.80373      2.79674         0.893282      0.059049      0.250169
O       7.79419      9.71395     15.97255        -0.196415      0.097849      0.536445
O       7.77571      9.80781      7.24766        -0.103144     -0.519587     -0.063181
O       7.80784      9.61747     11.73338        -0.466066      0.105977     -0.127615
O      11.63600      1.99437      2.78783         0.485356      0.033568      0.249237
O      11.73207      1.92214     15.88442         0.146971     -0.423026      0.633935
O      11.72133     13.55200      2.92399        -0.795749     -0.233115     -0.203562
O      11.72132     13.69284     16.11532         0.441799     -0.492496      0.063458
O      11.62589      1.90016      7.23305        -0.975179      0.211491      0.001940
O      11.56797     13.59513      7.35091        -0.094848      1.039828      0.129704
O      11.64697      1.97874     11.65984        -0.054120     -0.753823      0.461056
O      11.65094     13.60319     11.61643         1.108374      0.306092      0.648749
O      11.66371      5.81684      2.73528        -0.096574      0.661349      0.686152
O      11.65184      5.76453     15.95422         0.701811      0.745414      0.447245
O      11.67065      5.82610      7.22189         0.097335      0.340931      0.066657
O      11.61934      5.83116     11.82928         0.727011     -0.060858     -0.483035
O      11.53955      9.76291      2.94003         0.919369     -0.020922     -0.168931
O      11.74385      9.93907     16.08084        -0.266982     -0.606776      0.424524
O      11.69775      9.65567      7.22526        -0.540528      0.118869     -0.592935
O      11.61002      9.74885     11.69818         1.231109     -0.015334     -0.208808
O       1.90720      3.77750      2.58915        -0.430479      1.278689      0.786280
O       1.92948      3.85162     16.09941         0.217093     -0.157388     -0.045540
O       1.92183      0.00856      2.80920        -0.270383     -0.607116      0.579291
O       2.03573     15.55317     15.89460        -0.201825      0.709503      0.361484
O      13.60719      3.85077      2.65204        -0.037636      1.265810      0.471860
O      13.68272      3.92697     15.92450         0.226054     -0.295551      0.861299
O      13.50282     15.49682      2.75823         0.198161      1.384953      0.330444
O      13.82975     15.51685     16.14071        -0.970030      0.833752     -0.353911
O       2.04358      3.91730      7.22005        -0.508084     -0.997791      0.124961
O       1.71196      0.02720      7.29867         0.570161     -0.334372     -0.073352
O      13.58375      3.83778      7.39460        -0.019418      0.678694     -0.650805
O      13.43620      0.01977      7.16094         0.672592     -0.058915      1.148213
O       1.85955      3.92597     11.60348         0.163646      0.082801      0.072509
O       1.99125     15.52127     11.67113        -0.618273      0.504429      0.082122
O      13.50575      3.87605     11.71972         0.926798      0.957767      0.082854
O      13.66680      0.04719     11.60314        -0.330092     -1.273328      0.381789
O       1.79902      7.75712      2.87167        -0.004426     -0.249784     -0.269039
O       1.78079      7.84367     16.13563         0.925999     -0.738972     -0.097773
O      13.63690      7.78362      2.99545        -0.418259     -0.034777     -0.651903
O      13.54530      7.83239     16.12423         0.535230      0.246587     -0.344222
O       1.93014      7.76265      7.20374         0.044469      0.331413      0.059308
O      13.66733      7.76532      7.20970        -0.138930      0.061205      0.141299
O       1.84275      7.76123     11.50196        -0.002694      1.037354      0.623061
O      13.56680      7.86843     11.57125        -0.132915     -0.999244      0.607897
O       1.89197     11.60189      2.80913        -0.000571      1.000414      0.881165
O       1.90256     11.63493     16.00904         0.068482      0.029048      0.375330
O      13.67611     11.69179      3.09423        -0.770167     -0.194738     -0.809685
O      13.71409     11.72449     16.19458        -0.071260     -0.076237     -0.295875
O       1.81924     11.69261      7.31224         0.638683     -0.243436     -0.484827
O      13.50242     11.71807      7.17320         0.259145     -1.029500      0.089715
O       1.84543     11.63154     11.55677        -0.051438     -0.470131      0.266183
O      13.56000     11.57722     11.65342         0.251794      1.403172     -0.084722
O       5.72327      3.81105      2.92899         0.941829      0.922830     -1.148825
O       5.86735      3.80352     16.05917        -0.085580      0.738880     -0.098110
O       5.75135     15.59945      2.76631         0.298041     -0.269373      0.176743
O       5.90741     15.53187     15.88832        -0.143174      0.707214      0.260029
O       5.71784      3.85170      7.10841         0.140180     -0.222384      0.304602
O       5.95026      0.03957      7.07962        -0.457041     -1.500852      0.663323
O       5.73625      3.88006     11.45229         0.220134      0.367937      0.519820
O       5.78148     15.56176     11.63569        -0.204188     -0.113235      0.190881
O       5.79670      7.76146      2.83121         0.143966     -0.015952     -0.643684
O       5.86272      7.76850     16.15490        -0.361272     -0.012578     -0.049772
O       5.70040      7.79827      7.13958         0.692120     -0.303456      0.142995
O       5.77342      7.78922     11.72477         0.041870      0.018058     -0.384776
O       5.83418     11.72826      2.62986        -0.299886     -0.074843      0.762099
O       5.88186     11.64510     15.99000        -0.346700     -0.304762      0.685021
O       5.76951     11.72498      7.25245         0.192898      0.097846     -0.331803
O       5.82775     11.63581     11.81295         0.225363      0.003665     -0.824073
O       9.73745      3.97405      2.75628        -0.273492     -0.139113      0.436805
O       9.77739      3.90613     16.02091        -0.239261     -0.496615      0.288423
O       9.86072     15.57984      2.77728        -0.707369     -0.056420      0.453290
O       9.73660     15.54941     16.00092        -0.055163      0.273862      0.305752
O       9.75490      3.93036      7.13383         0.169785     -0.262275      0.136696
O       9.45830      0.03004      7.09939         1.158022     -0.248635     -0.041491
O       9.70268      3.83012     11.61053        -0.434814      0.591018      0.385274
O       9.72819     15.52961     11.83644         0.037009      0.163027     -0.472831
O       9.47855      7.90485      2.78023         0.858346     -1.347911      0.118055
O       9.79739      7.83394     15.98152         0.083501     -0.282898      0.378442
O       9.75127      7.83518      7.16233        -0.257547     -0.576256      0.297331
O       9.84932      7.76313     11.71184        -0.805605     -0.004768      0.012654
O       9.67223     11.77369      2.80645        -0.286148     -0.621193      0.205418
O       9.72557     11.70727     16.20388         0.095948     -0.606121      0.435051
O       9.74793     11.68985      7.26521        -0.290450     -0.796813     -0.200605
O       9.61759     11.58702     11.63602         0.486368      0.773995      0.157249
