  # total energy = -7876.10961456 
CRSYTAL
PRIMVEC
    15.2000000000000000    0.0000000000000000    0.0000000000000000
     0.0000000000000000   15.2000000000000000    0.0000000000000000
     0.0000000000000000    0.0000000000000000    17.000000000000000
PRESSURE
8.54228 8.25031 -0.687648 0.25945 -0.210734 0.026567
PRIMCOORD
320 1
Pb       3.62449      3.84298      4.32380         0.722122     -0.188506     -0.217596
Pb       3.94589      3.89343     16.98890         0.144398     -0.104849     -0.119034
Pb       3.64555      0.19242      4.29692         0.377487     -0.480766      0.258542
Pb       3.84888     15.16933     16.91003         0.045309     -0.104957      0.696174
Pb       0.08657      3.86347      4.21006        -0.741814      0.075946      0.156512
Pb       0.19215      3.95510     16.94077        -0.683197     -1.005934      0.075518
Pb      15.14274      0.20511      4.50300         0.270136     -0.434485     -0.336193
Pb       0.06339     15.09761     16.96496        -0.200989      0.214121      0.011324
Pb       3.92904      3.87913      8.33959        -0.143669     -0.115618      0.684059
Pb       3.83360     15.03670      8.70981        -0.142955      0.143608     -0.746573
Pb       0.15171      3.60197      8.66055        -0.116110      0.296513     -0.480502
Pb      14.91703     15.15585      8.46984         0.988194      0.008182      0.545664
Pb       3.85872      3.57992     12.53651        -0.352149      1.599361      1.063509
Pb       3.81703      0.08777     12.86788        -0.067150     -0.490939     -0.573191
Pb      15.13601      3.86790     12.67816         0.287948     -0.270245      0.125241
Pb       0.07615     15.19955     12.87311        -0.466640      0.204699     -0.598852
Pb       3.71314      7.63884      4.34357         0.100635     -0.195531      0.072335
Pb       3.71116      7.63973     16.95500         0.605003     -0.430547      0.085563
Pb      15.08238      7.78832      4.36910        -0.115948     -0.385671     -0.500429
Pb      15.05074      7.44713     16.88665         0.807589      0.540462      0.270665
Pb       3.85498      7.58290      8.33403         0.030381     -0.343949      0.513432
Pb      15.04798      7.52566      8.49000         0.285152      0.006170      0.057664
Pb       3.64744      7.47327     12.68403         0.889521     -0.175938     -0.058181
Pb       0.03267      7.47416     12.82334        -0.181696     -0.216486     -0.608420
Pb       3.55110     11.43843      4.34593         0.062350      0.130253     -0.042968
Pb       4.04905     11.42238      0.20542        -0.430434      0.207017     -0.298324
Pb       0.00716     11.45070      4.20067        -0.667216      0.220793      0.024969
Pb       0.12190     11.32472     16.83032        -0.438423      0.219016      1.292720
Pb       3.64574     11.37302      8.57768         0.190898      0.367246     -0.703969
Pb      15.14645     11.34663      8.63019        -0.189425      0.436237     -0.633184
Pb       3.72587     11.25809     12.66004        -0.274982      0.283915      0.424188
Pb      15.11167     11.01385     13.00017         0.633851      1.298717     -1.028735
Pb       7.55458      3.83848      4.28488        -0.292273     -0.361162     -0.275122
Pb       7.61733      3.79219      0.13064        -0.502791     -0.224930     -0.376864
Pb       7.56022     15.08519      4.23821        -0.165173      0.488425     -0.612255
Pb       7.69648     15.09083     16.95551        -0.636116      0.299396      0.778957
Pb       7.68972      3.56112      8.44713        -0.239042      1.200696      0.095653
Pb       7.65474      0.06206      8.55582        -0.407371     -0.637373     -0.037716
Pb       7.72041      3.71051     12.77418        -0.789630      0.901690      0.097913
Pb       7.58399     15.10731     12.85115        -0.123753      0.089505     -0.784890
Pb       7.70979      7.44874      4.05901        -0.246844      0.737868      0.813071
Pb       7.69925      7.71024      0.13191        -0.523574     -0.169844     -0.419128
Pb       7.55063      7.62881      8.28162        -0.059876     -0.107817      1.104521
Pb       7.49515      7.66541     12.63092        -0.302981     -0.932594      0.388082
Pb       7.47220     11.36279      4.31426         0.273997     -0.139369     -0.527364
Pb       7.51984     11.46921     16.98742        -0.282904     -0.102286      0.172484
Pb       7.62900     11.47874      8.66312        -0.052646     -0.036517     -0.771636
Pb       7.65800     11.37040     12.70625        -0.393355      0.005272      0.310902
Pb      11.33710      4.04323      4.07825         0.995882     -1.499967      0.654002
Pb      11.29009      3.61155     16.94475         0.584609      0.629518      0.339028
Pb      11.49814     15.15652      4.14855        -0.330257     -0.025033      0.151521
Pb      11.41142      0.01389     16.98563         0.164941     -0.222580     -0.132677
Pb      11.46128      3.78622      8.47090        -0.346519      0.069198     -0.188181
Pb      11.34920      0.03258      8.47343         0.079133     -0.377953      0.009195
Pb      11.26786      3.58804     12.75854         0.408271      1.067204      0.543962
Pb      11.38782      0.02199     12.63106         0.297839     -0.406168      0.240908
Pb      11.47429      7.45855      4.10119         0.119759      1.324743      0.452723
Pb      11.41656      7.60000     16.93654        -0.290027     -0.501094      0.121388
Pb      11.31464      7.51866      8.70316        -0.148434      0.525391     -0.918338
Pb      11.39980      7.67402     12.95350        -0.617804     -0.769259     -0.592309
Pb      11.36162     11.30456      4.19364         0.537385     -0.005709      0.167446
Pb      11.48061     11.42774     16.71403        -0.347279     -0.017051      1.069427
Pb      11.34931     11.37274      8.52064        -0.086143      0.214323     -0.238706
Pb      11.25337     11.14035     12.47228         0.255214      1.612997      1.347866
Ti       1.90919      1.91533      2.15429        -0.333737      0.575228     -1.067957
Ti       1.95849      1.87687     15.02403        -0.020853      0.502402     -0.686189
Ti       1.81290     13.38984      2.34892        -0.435636     -0.531651      0.485358
Ti       1.87436     13.26028     14.92360         0.813694      0.798785     -0.247448
Ti      13.35301      1.84710      2.19086        -0.266726      1.100076      0.139583
Ti      13.37595      1.88386     15.04486        -0.403833     -0.058902     -1.101152
Ti      13.21495     13.26912      2.15555         1.163754     -0.757367     -0.412506
Ti      13.27376     13.23968     14.81982        -0.367360      1.734489     -0.882588
Ti       1.90280      1.89670      6.65514        -0.187522     -1.183739      0.239431
Ti       1.71787     13.30275      6.63633         1.228714      0.937072     -1.546572
Ti      13.25856      2.01205      6.43070         0.039008     -0.301777     -1.342705
Ti      13.17200     13.29933      6.54398        -0.300960     -0.294361     -1.331801
Ti       1.87626      1.81719     10.78566        -0.500108      0.005095     -1.907184
Ti       1.77947     13.26162     10.79328        -0.596979     -0.321874     -1.133743
Ti      13.29161      1.96207     10.76255         0.104674     -1.240320      0.516747
Ti      13.23152     13.30431     10.81849         0.256171      0.021350     -0.628486
Ti       1.93700      5.77914      2.21986        -0.713253     -0.402899      0.332968
Ti       1.91248      5.67657     14.88188         1.136259     -1.190513     -0.527978
Ti      13.38911      5.69463      2.17021         0.733462     -0.279106     -1.190342
Ti      13.25521      5.62093     14.93744        -0.578522     -0.839153     -0.150243
Ti       1.79784      5.69345      6.53361         0.394582     -0.127744     -0.490064
Ti      13.24480      5.77267      6.55308         0.088537     -1.242658     -0.974975
Ti       1.86998      5.71708     10.68799         0.384870     -0.508065     -0.485198
Ti      13.19631      5.72238     10.76385         0.098914      0.353080     -0.427603
Ti       1.88928      9.46738      2.26701        -0.308543      1.115009     -1.615532
Ti       1.96337      9.52658     15.01862         0.097140     -1.211360     -0.739325
Ti      13.33436      9.48166      2.08268        -0.060119      0.722789      1.606891
Ti      13.26966      9.43170     14.89945        -0.206201      0.433534      1.092142
Ti       1.79517      9.46125      6.56111         0.319915      0.965842     -0.257206
Ti      13.16991      9.50871      6.59247        -0.422883      0.235154     -1.942359
Ti       1.79990      9.49659     10.68849        -0.204190     -0.506513     -0.585555
Ti      13.25823      9.47466     10.73894        -0.332650     -0.017573     -1.447764
Ti       5.70118      1.91175      2.30419         0.205768     -0.124082     -0.562369
Ti       5.72212      1.90177     14.97917         0.156965      0.557766     -0.228610
Ti       5.57768     13.29771      2.40386         1.017902      0.340683     -1.589778
Ti       5.60273     13.30499     14.95798         0.450039     -1.087385      0.293266
Ti       5.73044      1.80521      6.55571        -1.073870      0.032725     -1.515662
Ti       5.64634     13.24224      6.47729        -1.388502      0.879080     -0.355703
Ti       5.74259      1.85323     10.77537         0.060470      0.128128     -0.848943
Ti       5.57528     13.20793     10.87364         0.474235      1.919320     -1.158467
Ti       5.67788      5.71643      2.33652         0.159021     -1.252569     -1.832581
Ti       5.74557      5.68003     14.92277        -0.969995     -0.523344     -1.413017
Ti       5.75735      5.67786      6.47819        -1.256647      0.291321     -1.300365
Ti       5.66741      5.65148     10.73298         0.177618      0.466666     -1.332716
Ti       5.66206      9.45399      2.36655         0.196066      1.248589     -1.436772
Ti       5.64967      9.40728     15.00072         0.912862      0.422243      0.029287
Ti       5.62746      9.52496      6.40785         0.378343     -0.156472     -1.015600
Ti       5.54398      9.50246     10.70675         0.221083     -2.568455     -1.446425
Ti       9.53576      1.91362      2.32128        -0.722781     -0.960425     -0.949449
Ti       9.48191      1.84489     15.01708        -0.169943      1.208675     -0.416236
Ti       9.43656     13.20397      2.21314        -0.338557      1.191131     -0.718837
Ti       9.47631     13.27577     14.93817         0.118372     -0.519149     -1.059844
Ti       9.54692      1.91027      6.35506         0.462998     -0.006723     -0.543198
Ti       9.38359     13.34757      6.46972         1.376237     -0.739294     -0.600179
Ti       9.49101      1.92439     10.75062        -0.628511     -0.532334     -0.496589
Ti       9.42414     13.30955     10.78333         0.345744      0.469406     -0.362273
Ti       9.55252      5.67555      2.11776        -0.061575      0.251252     -1.132486
Ti       9.46291      5.66348     15.01341         0.251586      0.172169     -1.269504
Ti       9.48952      5.77317      6.49489         0.153687     -0.148219      0.028088
Ti       9.40552      5.69618     10.63754        -0.960252     -0.245133     -0.359222
Ti       9.54328      9.49364      2.15756        -0.153709      0.033845     -0.628476
Ti       9.46466      9.47627     15.00176        -0.858778     -0.436151     -0.679221
Ti       9.38433      9.59497      6.46650         1.430062     -0.729500      0.051162
Ti       9.35300      9.39520     10.68379         0.351694      0.578429     -1.804023
O       1.84212      1.81280      0.32199         0.058619      0.321241      0.920311
O       1.99389      1.76510     13.13980        -0.105345      0.042457      0.118477
O       1.85552     13.39627      0.60525        -0.220513      0.030613     -1.401100
O       1.85632     13.23768     13.13581         0.043927      0.160851      0.194686
O      13.30518      1.86472      0.39749         0.214964     -0.213816     -0.405873
O      13.11816      1.98923     13.22408         0.504138     -0.476275     -0.242971
O      13.22781     13.33893      0.34206         0.042161     -0.219321      0.306069
O      13.19544     13.20608     12.98961         0.407796      0.276656      1.134643
O       1.88344      2.01935      4.85577         0.250237     -0.466275     -1.183553
O       1.84811     13.39361      4.70735        -0.146634     -0.449902      0.741701
O      13.20683      1.99233      4.59906         0.090121     -0.417087      0.187680
O      13.20794     13.16265      4.72764        -0.314141      0.607270      0.334972
O       1.81333      1.79697      8.84953        -0.412229      0.449400      1.597757
O       1.80273     13.31126      8.91894         0.195168     -0.493375      0.183685
O      13.37351      1.84327      9.00725        -0.325901      0.690059     -0.616236
O      13.16492     13.40957      8.99308         0.090924     -0.538645     -0.580459
O       1.79001      5.66463      0.42439         0.298173      0.386264     -0.366105
O       1.88373      5.65031     13.06219        -0.202534      0.252989      0.294516
O      13.32913      5.75683      0.31206         0.627295      0.070650      0.603591
O      13.35858      5.73429     13.12056        -0.601479     -0.112777     -0.156834
O       1.89648      5.74647      4.72287         0.294748     -0.156229     -0.076972
O      13.27495      5.69852      4.74124        -0.486598      0.433574     -0.516848
O       1.85910      5.68656      8.87373        -0.294457      0.177638      0.139322
O      13.16597      5.75073      8.91439         0.699716      0.396027      0.612525
O       1.86064      9.43035      0.40840         0.011009      0.223533     -0.042909
O       1.92512      9.41483     13.13691        -0.250990      0.741762      1.238928
O      13.31242      9.55068      0.32540         0.096346     -0.295728     -1.311204
O      13.32988      9.47023     13.12208        -0.399600      0.002407     -0.887865
O       1.88404      9.54540      4.76676        -0.159949     -0.218368     -0.969575
O      13.29980      9.47100      4.70471        -0.214829     -0.007280      0.796141
O       1.90180      9.56017      8.87376        -0.420085     -0.140065     -0.383247
O      13.11785      9.36655      8.90092         0.746543      0.164810      0.221524
O       5.72370      1.98107      0.48551        -0.045678     -0.022813      0.036140
O       5.68419      1.97962     13.14715        -0.167150     -0.689365     -0.304905
O       5.67161     13.25690      0.43729         0.014304      0.120069      0.811830
O       5.66802     13.22633     13.16815        -0.183030     -0.004869     -0.739398
O       5.60417      1.87139      4.73218         0.192270     -0.264221      0.510716
O       5.71349     13.37481      4.63966        -0.104541     -0.519743      0.624493
O       5.74580      1.89691      8.95743         0.165570     -0.161828     -0.201610
O       5.64909     13.35441      9.04188         0.080225     -0.599916      0.470392
O       5.64042      5.55178      0.34520         0.439179      0.344916      1.760688
O       5.65935      5.60828     13.05658         0.040534      0.345938      1.156058
O       5.74314      5.83794      4.59155        -0.088750     -0.372395      0.067814
O       5.66936      5.71394      8.82692        -0.121223     -0.100745      0.351609
O       5.59724      9.57162      0.41224         0.211782     -0.521373      0.950451
O       5.65198      9.42357     13.21053        -0.283572      0.357232     -0.304405
O       5.71697      9.57134      4.51377         0.105680     -0.386961      0.920554
O       5.49126      9.40597      8.86657         0.546246      0.576190      0.969959
O       9.45321      1.99674      0.43860        -0.065280     -0.144069     -0.116123
O       9.43803      1.95820     13.17567         0.281218     -0.589185     -0.073533
O       9.38699     13.32897      0.36406         0.454837     -0.540092      0.226946
O       9.47585     13.21177     13.09183        -0.400429      0.547588      1.027228
O       9.58822      1.96961      4.53521        -0.077692     -0.297206      0.559393
O       9.54071     13.25809      4.67191        -0.512019      0.398168     -0.155098
O       9.51841      2.03560      8.95794        -0.413652     -0.637161     -0.090777
O       9.42534     13.33287      8.98593        -0.544307     -0.307943     -0.605161
O       9.53019      5.71113      0.32069        -0.281007     -0.294727      0.052768
O       9.52165      5.67598     13.17762        -0.043530      0.392278      0.427295
O       9.58788      5.65053      4.64822        -0.166937      0.493098      0.298534
O       9.32995      5.70674      8.81065         0.263758     -0.302415      0.330112
O       9.51936      9.50687      0.34622         0.134107     -0.127832     -0.414580
O       9.46901      9.30244     13.16362        -0.169528      0.329299     -0.293056
O       9.45780      9.50708      4.70697        -0.072623      0.124601     -1.490508
O       9.34620      9.49286      8.82545         0.037428      0.268321      1.393148
O       3.78140      2.03682      2.53489        -1.080021     -0.611082      0.363971
O       3.86528      1.84128     15.33509        -0.562843     -0.155355     -0.032733
O       3.77633     13.29054      2.53101        -1.157383      0.180694      0.577449
O       3.75913     13.26485     15.41586        -0.555853      0.232747     -0.504756
O      15.19171      2.02638      2.57222         0.314159     -0.710444      0.095417
O       0.08526      1.80123     15.15599        -0.962676      0.293576      0.243059
O      15.11419     13.30703      2.56987        -0.028506      0.005249      0.110273
O       0.00363     13.32341     15.26040        -0.418484     -0.249924     -0.050451
O       3.79719      1.77611      6.89270        -0.188427      0.084730     -0.002373
O       3.72607     13.37582      6.86944         0.458254      0.245704      0.161097
O      15.08932      1.92284      6.67845         0.811768      0.606275      0.735391
O      15.03222     13.26531      6.78352         0.858310     -0.797865      0.722508
O       3.73618      1.76572     10.94634         0.295955      0.123145      0.559192
O       3.67459     13.37007     11.03703         1.126976     -0.412838      0.412627
O      15.15339      1.95156     11.14818        -0.068620     -0.114997      0.186010
O      15.12225     13.29068     10.90946        -0.518286     -0.715758      0.735042
O       3.83566      5.73299      2.46992        -1.060212      0.131903      0.453025
O       3.82529      5.62349     15.21016        -1.453119      0.123168      0.357197
O       0.07292      5.86406      2.61970        -0.419977     -0.448137     -0.199499
O      15.16167      5.66315     15.19747         0.832728     -0.019697      0.447063
O       3.82447      5.72938      6.73890        -0.837273      0.020933      0.166452
O      15.12729      5.66567      6.70205         0.426310      0.301943      0.989031
O       3.76272      5.69900     10.99169        -1.301354      0.039503      0.177372
O      15.15858      5.71548     11.07046        -0.583118     -0.152538     -0.138285
O       3.77091      9.58317      2.60643         0.288036     -0.431087      0.161998
O       3.80705      9.52875     15.35972        -1.198669     -0.094907     -0.157529
O       0.03233      9.51218      2.54725        -0.838436      0.059914      0.246209
O      15.19417      9.49965     15.19648         0.111313      0.301847     -0.012697
O       3.78595      9.43412      6.61246        -0.163320     -0.317148      0.587792
O      15.17449      9.67611      6.78616        -0.618703     -0.718882      0.721484
O       3.63684      9.46195     10.97016         1.900673      0.076868      0.709694
O      15.13432      9.57506     11.01394        -0.472825      0.223951      0.228141
O       7.55208      1.93005      2.56829         0.594180      0.427665      0.546515
O       7.56898      1.83260     15.30540         0.648434      0.145856      0.106446
O       7.51451     13.30041      2.49080         1.607142     -0.081080      0.731163
O       7.56762     13.27961     15.26392         0.876848      0.111096     -0.105637
O       7.62373      1.89695      6.65918         0.262452      0.050462      0.624357
O       7.52847     13.25677      6.76154         0.069291     -0.205828      0.457614
O       7.58195      1.89837     11.03358        -0.079117      0.073762      0.303756
O       7.52929     13.30068     11.07956        -0.478321     -0.714677      0.579412
O       7.68890      5.66976      2.48392        -0.860690      0.130865      0.129091
O       7.57457      5.74414     15.23423         0.792177     -0.043509      0.371332
O       7.55838      5.61612      6.59395         1.915997     -0.013651      0.555569
O       7.49163      5.63110     10.98617         1.191036     -0.057929      0.415777
O       7.62574      9.41985      2.34747        -0.288793      0.028551      0.662474
O       7.58683      9.49109     15.28953        -0.327154     -0.352240      0.266478
O       7.56382      9.60056      6.71723        -1.550752      0.250574      0.507189
O       7.47283      9.49974     11.05514        -0.033941      0.460996      0.012994
O      11.40482      1.98750      2.37148         0.495702     -0.224052      0.538402
O      11.36239      1.93818     15.32510         0.312716     -0.549285      0.238094
O      11.34810     13.27820      2.51711        -0.210249      0.237102      0.141432
O      11.38859     13.29650     15.26001         0.048596      0.254098     -0.012719
O      11.40963      1.88726      6.83492        -1.110376     -0.446139      0.299597
O      11.33514     13.35228      6.86345        -0.683107      0.255752      0.380201
O      11.34806      1.86807     10.98571         0.368715      0.155507      0.597359
O      11.27478     13.32865     10.98280         0.520766      0.080150      0.635679
O      11.47035      5.71960      2.37743        -0.175753      0.126995      0.642354
O      11.42909      5.64280     15.33463        -0.128714      0.441068     -0.191971
O      11.38644      5.84520      6.86986        -1.404189     -0.489822      0.106169
O      11.24842      5.71931     10.85644         1.052428      0.587295      0.508682
O      11.42827      9.48402      2.48287         0.170063     -0.342691      0.175937
O      11.34474      9.41634     15.15088         2.014776      0.312553      0.310239
O      11.30383      9.38235      6.77221         0.183408      0.490989      0.457777
O      11.29106      9.39557     11.00793        -0.332682     -0.878006      0.138126
O       1.82366      3.85941      2.62561         0.554228     -0.010037     -0.313114
O       1.95943      3.74911     15.26170        -0.540004      0.482500      0.220702
O       1.79230      0.12443      2.65029         0.420933     -0.282485      0.196690
O       1.91114     15.18136     15.30689         0.231340     -1.016416     -0.039306
O      13.43960      3.87897      2.47485        -0.477385     -0.332483      0.069111
O      13.29520      3.76117     15.22634         0.338134      0.405233      0.462991
O      13.26522     15.15767      2.56092        -0.091580      0.801862      0.070510
O      13.28521      0.00632     15.19399        -0.135596     -0.976152      0.220712
O       1.85939      3.77782      6.85906         0.182791      0.677897      0.453207
O       1.57188     15.18152      6.80018         0.772169      0.297022     -0.025917
O      13.16515      3.81798      6.85121         0.057421      0.694593      0.341214
O      13.32230      0.07155      6.77431        -0.733845     -0.910886     -0.070691
O       1.77535      3.78550     10.95068         0.361571     -0.495288      0.116927
O       1.71239     15.11511     11.05956         0.351341      1.445352      0.527672
O      13.17155      3.86067     11.04818         0.275184     -0.333298      0.054097
O      13.26361      0.00071     11.02052        -0.234127      0.666947      0.856204
O       1.93422      7.66275      2.55618         0.479414     -0.929153      0.486092
O       1.86720      7.49164     15.18202         0.240249      1.688713      0.461812
O      13.41718      7.61039      2.50292        -0.711815      0.249986      0.207216
O      13.32051      7.60977     15.12892        -0.160468     -0.343424      0.482095
O       1.84800      7.58138      6.75799        -0.326897      0.289487      0.537294
O      13.25555      7.63801      6.77108         0.924375     -0.530260      0.676398
O       1.74097      7.63645     11.00641         0.264900     -0.999147      0.261886
O      13.33468      7.66151     11.10130        -0.430498     -1.705283      0.201301
O       1.85954     11.42434      2.61130         0.107064      0.056290      0.283837
O       1.88146     11.39685     15.29812        -0.052937     -0.514696     -0.248847
O      13.26509     11.35970      2.48870         0.080191      0.273509      0.062187
O      13.29990     11.41866     15.11516         0.141823     -1.058990      0.502896
O       1.97490     11.42533      6.82659        -0.284858     -0.421772      0.369722
O      13.13354     11.36044      6.89383         0.035736      0.725450      0.554688
O       1.86628     11.34818     11.01382         0.137146      0.572166      0.477615
O      13.04407     11.32067     10.92064         0.551779      0.706909      0.232652
O       5.61430      3.83180      2.68998         0.725264      0.045091      0.114190
O       5.67999      3.76804     15.23538         0.268730     -0.155724      0.494655
O       5.66173     15.19148      2.66861        -0.130091      0.822102     -0.060744
O       5.67342     15.15135     15.22362         0.003347      0.641278      0.200547
O       5.65360      3.80644      6.68853        -0.005708     -0.886436      0.466919
O       5.75171     15.14957      6.93161         0.081814      0.051197     -0.006080
O       5.61339      3.79204     10.99753        -0.176893     -1.421209      0.051008
O       5.68105     15.17856     11.12010        -0.047724     -0.051551      0.475337
O       5.73325      7.56356      2.48324        -0.079001      0.865564      0.217253
O       5.52044      7.52420     15.30124         0.588851      1.342125      0.147682
O       5.80416      7.60610      6.71606        -0.657634      0.633220      0.019918
O       5.61088      7.53354     11.06431        -0.027156      1.531084      0.129063
O       5.72079     11.40675      2.55582        -0.014345     -0.496964      0.252886
O       5.66591     11.44554     15.38289         0.105758     -1.134553     -0.198054
O       5.54803     11.37909      6.78585         0.361775      0.310659      0.180640
O       5.61524     11.32036     11.05152        -0.221173      0.714352      0.281269
O       9.49522      3.84214      2.50538         0.045841     -0.057767      0.173881
O       9.54446      3.77100     15.20906        -0.579853      0.177197      0.589239
O       9.39417      0.01529      2.38056         0.536379     -0.394503      0.797973
O       9.53162      0.02670     15.30766        -0.168293     -1.579427     -0.100931
O       9.52499      3.71546      6.82759         0.088666      1.234365     -0.212988
O       9.43597      0.00435      6.90956         0.011836      0.623137     -0.327052
O       9.39917      3.78816     11.12437         0.367878      0.286161     -0.299465
O       9.37670      0.00748     11.07268         0.124150      0.382721      0.307059
O       9.56277      7.57802      2.33161        -0.126733     -0.128504      0.786430
O       9.63163      7.56213     15.36354        -0.625502      0.245468      0.060644
O       9.37140      7.64155      6.79993        -0.106591     -1.265723     -0.325887
O       9.21511      7.59134     10.88419         0.600511     -0.759166      0.375324
O       9.51456     11.34759      2.47568        -0.296576      0.590973      0.362803
O       9.59721     11.34996     15.11314        -0.471373      0.794491      0.527186
O       9.49637     11.46190      6.79643        -0.046927      0.015155      0.541923
O       9.47148     11.34921     10.99331        -0.730137     -0.253812      0.134601
