  # total energy = -7882.39129571 
CRSYTAL
PRIMVEC
    15.6000000000000000    0.0000000000000000    0.0000000000000000
     0.0000000000000000   15.6000000000000000    0.0000000000000000
     0.0000000000000000    0.0000000000000000    17.640000000000000
PRESSURE
-3.35737 -3.27497 -1.658 -0.085152 0.428609 -0.011238
PRIMCOORD
320 1
Pb       3.91993      3.86046      4.34803        -0.291939     -0.166220      0.345931
Pb       3.98613      3.97983     17.55635        -0.108880     -1.042308      0.489384
Pb       3.74984     15.45085      4.33326         0.525836      0.542905      0.413043
Pb       3.80808     15.58871      0.02983         0.360137      0.264557     -0.042910
Pb      15.52731      3.83816      4.32421        -0.048774      0.458243      0.379005
Pb       0.05423      3.93762     17.55762        -0.252473     -0.496278      0.260440
Pb      15.59036     15.55382      4.33053         0.069251     -0.098143      0.456903
Pb      15.43347     15.57653     17.61885         0.885025      0.054159      0.028144
Pb       3.83771      3.99804      8.74169        -0.146468     -0.544137      0.689352
Pb       3.88764     15.57650      8.74202         0.129052      0.297586      1.008489
Pb      15.56094      3.97466      8.80759         0.411038     -0.770439      0.855785
Pb      15.49711      0.02414      8.64233         0.730813      0.083474      0.788252
Pb       3.94725      3.81054     13.23749         0.085977      0.178370     -0.080177
Pb       3.93158      0.01622     13.14122        -0.047350     -0.116990      0.288903
Pb       0.03417      3.97195     13.13051        -0.492867     -0.812482      1.046577
Pb      15.49816     15.53554     13.19353        -0.050259      0.427331      0.234754
Pb       3.96444      7.75001      4.38515        -0.167888      0.178961     -0.114053
Pb       4.00509      7.71414     17.52666        -0.780543      0.758386      0.835594
Pb       0.02319      7.66855      4.25757        -0.253074      0.454488      1.214607
Pb       0.08037      7.72217     17.47447        -0.377809      0.576368      0.609435
Pb       3.84904      7.75970      8.74102        -0.147649      0.791108      0.686896
Pb      15.51375      7.80894      8.75348         0.698699     -0.068485      0.852297
Pb       3.92195      7.74640     13.16184         0.011361      0.140085      0.341635
Pb       0.06961      7.72204     13.13125        -0.229882      0.814223      0.559838
Pb       3.89343     11.63708      4.30383         0.248737     -0.131486      0.616192
Pb       3.83267     11.70488     17.54797         0.219318     -0.194472      0.374333
Pb       0.03207     11.77217      4.29010        -0.140742     -0.741702      1.121781
Pb       0.01050     11.71344     17.46000         0.162393     -0.299434      0.780832
Pb       3.82748     11.79465      8.85642         0.205659     -0.427184      0.139184
Pb      15.55661     11.73740      8.71795         0.277332      0.003914      0.230839
Pb       3.86624     11.73783     13.14329         0.272450     -0.306415      0.312253
Pb      15.47647     11.81159     13.15081         0.771769     -0.701275      0.492250
Pb       7.72390      3.71245      4.33740         0.537292      0.587415      0.592709
Pb       7.79249      3.94375     17.63239         0.200361     -0.637624     -0.370931
Pb       7.62911     15.51147      4.38789         0.737030      0.218977      0.870302
Pb       7.70158      0.02642     17.53476         0.296871     -0.191194      0.247805
Pb       7.62609      3.93410      8.80880         0.576291     -0.103861      0.392761
Pb       7.73586      0.05494      8.78324        -0.221313     -0.509841      0.222936
Pb       7.80486      3.90982     13.27573         0.097496     -0.427979     -0.273947
Pb       7.81633      0.09312     13.08104        -0.074737      0.148511      1.163165
Pb       7.82228      7.66458      4.34060        -0.258295      0.105797      0.176833
Pb       7.77088      7.74092     17.54118         0.303738      0.322360      0.615961
Pb       7.71221      7.81432      8.77575         0.562974      0.494432      0.443657
Pb       7.81881      7.76948     13.18413        -0.009451      0.028666      0.111991
Pb       7.75204     11.54233      4.30203        -0.091875      0.414708      0.608597
Pb       7.79478     11.63895     17.42048        -0.178797      0.357334      1.277814
Pb       7.77360     11.74576      8.62506         0.417543     -0.232426      1.440848
Pb       7.73399     11.78752     13.06692         0.021477     -0.637222      1.105441
Pb      11.76180      3.79458      4.25741         0.134905      0.196682      0.659102
Pb      11.64025      3.81119     17.63148        -0.244636      0.159533     -0.132092
Pb      11.65234     15.51114      4.30403         0.275159      0.301975      0.914005
Pb      11.66054     15.54057     17.63346        -0.336032      0.238569     -0.421531
Pb      11.68298      3.90784      8.68015        -0.229924     -0.250850      1.511577
Pb      11.68606      0.00585      8.72581        -0.039352      0.235137      0.268782
Pb      11.73622      3.89929     13.10352        -0.392664     -0.453221      1.407444
Pb      11.62569      0.03659     13.11289         0.461199      0.028071      0.973170
Pb      11.64498      7.76629      4.33878         0.393707      0.085088      0.134102
Pb      11.65061      7.73790     17.58008         0.247137      0.202776     -0.044720
Pb      11.67791      7.79820      8.73272        -0.215097      0.272714      0.537695
Pb      11.65875      7.78282     13.07935         0.173880     -0.120486      0.760777
Pb      11.67493     11.47978      4.32246         0.143840      0.788223      0.414361
Pb      11.59985     11.70392     17.54559         0.531857     -0.595845      0.537297
Pb      11.64556     11.78292      8.86695        -0.232736     -0.533975      0.006267
Pb      11.63743     11.70680     13.21995        -0.011224     -0.216976      0.359201
Ti       1.95654      2.05232      2.40430         0.912092     -0.670147      0.565860
Ti       2.00102      1.92362     15.62984        -0.187021     -0.634086      1.443518
Ti       2.01460     13.59809      2.36812        -0.200281      0.223226     -0.346463
Ti       1.99002     13.68789     15.60933         0.325106      0.171548      0.260464
Ti      13.70875      1.88069      2.28571        -0.479348      0.718656      0.024262
Ti      13.68000      1.91860     15.76419        -0.868109     -0.171513     -2.109557
Ti      13.70136     13.62579      2.38853        -0.163214     -0.667008      0.257658
Ti      13.69625     13.60082     15.71382        -0.500382      0.607638     -1.883397
Ti       1.99516      2.01009      6.73300        -0.312871     -0.747203      0.897586
Ti       1.97610     13.66857      6.83751        -0.446734      0.026354      0.290006
Ti      13.63078      1.98103      6.85612        -0.149106      0.040184     -0.600908
Ti      13.60198     13.57843      6.86876         0.678059      0.267498     -0.458687
Ti       1.95733      1.87988     11.20345        -0.408735      0.008153     -0.925120
Ti       1.94529     13.64488     11.26950         0.491020      0.112847     -1.820154
Ti      13.69534      1.90263     11.23912        -0.297644      0.081487     -0.456591
Ti      13.62519     13.59742     11.26281        -0.062085      0.234624     -0.537615
Ti       1.91222      5.86081      2.30682         0.161806     -0.586914      0.223565
Ti       1.90743      5.77929     15.63741         0.553235      0.570054     -1.109141
Ti      13.61760      5.83451      2.36240        -0.157738      0.058213      1.145080
Ti      13.58529      5.75195     15.67593        -0.515128      0.690644     -0.593921
Ti       1.92984      5.85186      6.84648        -0.833171     -0.016789     -0.008973
Ti      13.61306      5.82326      6.85713         0.527746     -0.058355     -0.078182
Ti       2.00002      5.78105     11.25002        -0.052665      0.444713     -1.077402
Ti      13.67994      5.78658     11.24977        -0.250895      0.779395      0.023268
Ti       1.95682      9.69026      2.42249        -0.085636     -0.061528     -0.808046
Ti       1.95411      9.73813     15.60129         0.468350     -0.401954     -0.132649
Ti      13.69995      9.68581      2.39878        -0.120890     -0.144725      0.996802
Ti      13.69728      9.70525     15.58507        -0.608583     -0.680852      0.144922
Ti       1.94180      9.73724      6.84961         0.717456      0.854715     -0.678898
Ti      13.72396      9.70109      6.75116        -0.536300      0.468666      0.150349
Ti       1.94424      9.73144     11.24753         0.219782      0.127860     -0.008777
Ti      13.65711      9.74503     11.23425         0.393707     -0.430419     -0.135664
Ti       5.90458      1.87229      2.39791        -1.220057      0.325218     -0.788830
Ti       5.80285      1.91377     15.58627         0.595363      0.176238     -0.531320
Ti       5.91629     13.62312      2.34794        -0.805112     -0.063860     -0.653036
Ti       5.78312     13.67094     15.62111         0.591127     -0.173289      0.056489
Ti       5.81161      1.98823      6.79672        -0.143076     -1.132773     -0.341709
Ti       5.86169     13.59753      6.85353         0.067477      0.283864     -0.136160
Ti       5.80567      1.98523     11.17540         0.931215     -0.452952      0.741634
Ti       5.84575     13.72951     11.22197         0.542119     -0.790843     -1.260198
Ti       5.76002      5.76916      2.40634         0.702092      0.398556     -0.209191
Ti       5.80675      5.85528     15.68052         1.208299     -1.062241     -2.442307
Ti       5.84704      5.81793      6.74239        -0.562417      0.284205     -0.416341
Ti       5.86171      5.80079     11.15464         0.375633     -0.023717      1.200575
Ti       5.85964      9.69790      2.37449        -0.982307     -0.021821     -0.274445
Ti       5.79630      9.78403     15.61812        -0.072925     -0.432280     -0.634704
Ti       5.83128      9.66427      6.81010        -0.465764      1.322643      0.081443
Ti       5.81722      9.72605     11.22804         0.413260      0.623966      0.731905
Ti       9.81857      1.91522      2.41048        -0.683804     -0.036015      0.028241
Ti       9.71324      1.87537     15.65581         0.066723      0.328704     -0.355480
Ti       9.75119     13.66888      2.43889        -0.247832     -0.070143     -0.404524
Ti       9.72430     13.60676     15.63513         0.284911      0.741738      0.694090
Ti       9.66166      2.02113      6.83976         0.576998     -0.964568     -1.198719
Ti       9.77399     13.72454      6.81973        -0.446554     -0.635306      1.321839
Ti       9.82030      1.91113     11.15842        -1.183495      0.603532      2.029628
Ti       9.76377     13.63826     11.27093         0.103194     -0.467881     -0.872201
Ti       9.73556      5.78418      2.42618        -0.027073     -0.349345     -0.298450
Ti       9.67406      5.81963     15.62026         1.139559     -0.827727     -0.186659
Ti       9.68591      5.82687      6.82759         0.467325      0.166008      0.904195
Ti       9.75805      5.73460     11.19002        -0.414279      0.276776      0.373803
Ti       9.65669      9.70339      2.41177         0.903888     -0.170315     -0.735970
Ti       9.73197      9.74642     15.63390         0.823312     -0.802944     -1.184380
Ti       9.77511      9.74315      6.84911        -0.285838      0.459608     -0.180307
Ti       9.75439      9.76685     11.31580        -0.980493     -0.363489     -0.487978
O       2.13268      1.88925      0.68979        -0.513709      0.095922      0.043578
O       2.04124      1.93348     13.95399        -0.030107      0.067264     -1.860321
O       2.00361     13.65739      0.60973        -0.062366     -0.167290      0.246917
O       2.06225     13.59857     13.88134        -0.229753      0.295007     -0.415398
O      13.66014      1.87722      0.52224         0.281032     -0.201099      0.396452
O      13.62825      1.76465     13.95600         0.059530      0.214417      1.144892
O      13.88981     13.63349      0.64151        -0.532488      0.008565      0.054145
O      13.76690     13.69035     13.87982        -0.172272     -0.220539      1.309392
O       2.01997      2.01268      4.95186        -0.401720     -0.140942      1.103971
O       1.89884     13.72167      5.06011         0.335377     -0.174252      0.681955
O      13.59265      2.20477      5.10138         0.335564     -0.459711      0.732057
O      13.62708     13.69915      5.16025        -0.084588     -0.098963     -0.876189
O       1.91392      1.89000      9.45296         0.145285      0.222335      1.037617
O       2.03137     13.66760      9.47900        -0.231363     -0.255607      0.891555
O      13.74496      1.93690      9.48934        -0.313270     -0.165921      0.150450
O      13.59147     13.56160      9.51766         0.040871     -0.036220     -0.339429
O       1.92971      5.81904      0.54740        -0.078164      0.037701      0.152130
O       2.04981      5.80551     13.84253        -0.436120     -0.204405      1.383652
O      13.56477      5.92468      0.67491         0.287514     -0.022656     -1.371110
O      13.63825      5.72253     13.93110         0.029925      0.200281      0.199127
O       1.90728      5.70322      5.11997         0.086939      0.256502      0.224643
O      13.71643      5.74512      5.12119        -0.232171      0.050145      0.174891
O       1.94467      5.81044      9.43609         0.251041      0.001899      1.587555
O      13.70674      5.86444      9.51851        -0.029325     -0.101490      0.010810
O       1.95992      9.61605      0.65816        -0.120532      0.460597      1.068472
O       2.01402      9.74267     13.87455         0.068062     -0.065507      0.091613
O      13.67604      9.59677      0.69040         0.110649      0.380376     -0.295522
O      13.68914      9.70871     13.86062        -0.124585      0.127778      0.034566
O       2.04955      9.79218      5.11131         0.033344     -0.125738     -0.222783
O      13.69469      9.54663      5.02019        -0.399847      0.483575      0.526518
O       2.03287      9.69838      9.50535        -0.455468      0.261769     -0.038644
O      13.68334      9.79918      9.46402         0.061929     -0.228703      1.004232
O       5.73996      1.83307      0.59589         0.502694      0.189303      1.697466
O       5.87427      2.00363     13.79835        -0.417768     -0.182224      0.956898
O       5.87795     13.79602      0.58503         0.004096     -0.565904      0.907430
O       5.72330     13.51538     13.90061         0.225018      0.438577     -0.239447
O       5.92885      2.01702      5.00955        -0.076392     -0.127332      1.195444
O       5.78889     13.60874      5.09465         0.142647     -0.001212      0.096628
O       5.77870      1.85375      9.45267         0.324892      0.516563     -0.572168
O       5.98068     13.64234      9.43121        -0.321228      0.227653      1.369378
O       5.86225      5.78813      0.60475        -0.132980     -0.108326      0.649762
O       5.89114      5.75779     13.84638        -0.238178      0.136012      2.103886
O       5.75883      5.80657      4.94338         0.108501      0.211132      1.675894
O       5.86760      5.90743      9.39638        -0.125227     -0.328280      0.466716
O       5.94371      9.75484      0.64374        -0.290024     -0.266005     -0.162232
O       5.73873      9.64778     13.86145         0.180531      0.165597      1.102290
O       5.69877      9.66240      5.04060         0.445327      0.082900      0.517455
O       5.92589      9.75642      9.49821        -0.115098     -0.487976      0.103398
O       9.73117      1.88316      0.66145         0.137539     -0.081376      0.660822
O       9.63669      1.86374     13.89395         0.348632     -0.007048      0.597330
O       9.72997     13.66933      0.68754         0.298569     -0.122063      0.589725
O       9.79341     13.60019     13.93281         0.180125     -0.007530     -0.957837
O       9.64960      1.97444      5.03621         0.193238      0.216529      1.583586
O       9.78206     13.79663      5.12956         0.087382     -0.289096     -1.303763
O       9.82762      1.93020      9.48110        -0.229075     -0.032210     -1.824385
O       9.88413     13.55109      9.51232        -0.115416      0.420061      0.428536
O       9.79629      5.69563      0.68095        -0.374508      0.367534      0.426694
O       9.60953      5.73703     13.86263         0.288296      0.250267      0.580375
O       9.72449      5.82587      5.11461        -0.086918      0.260802     -0.234229
O       9.72733      5.79719      9.44207        -0.013513      0.018365      0.222403
O       9.79868      9.63609      0.65547        -0.445297      0.397538      0.819479
O       9.71197      9.73032     13.85503         0.165364     -0.052626      1.054239
O       9.57705      9.66091      5.08595         0.566869      0.259555     -0.112020
O       9.69528      9.69073      9.57437         0.346417      0.087353      0.259187
O       3.92740      1.89864      2.95997        -0.441259     -0.003432     -0.742005
O       3.94269      2.01210     16.04865        -0.243451     -0.334444     -0.106555
O       3.95018     13.59284      2.78134        -0.443225      0.394960     -0.173254
O       3.94750     13.68834     16.05302        -0.711217     -0.721708      0.275136
O      15.59060      2.02093      2.84569         0.322230     -0.806200     -0.602699
O      15.58817      1.90837     16.00592         0.477297     -0.053209      0.524873
O      15.56308     13.56155      2.87008         0.254701      0.619920     -0.379289
O       0.09285     13.73172     16.06098        -0.812878     -0.323378     -0.024653
O       3.93091      1.93014      7.24806        -0.498690      0.484290     -0.612373
O       3.98920     13.65662      7.44570        -0.818072     -0.381208     -1.297296
O       0.03671      1.92762      7.24509        -0.203935      0.275016     -0.774899
O       0.00894     13.66125      7.24205         0.035976      0.218082     -0.029337
O       3.91415      1.94479     11.62091        -0.620398      0.071003      0.091478
O       3.98828     13.71775     11.59157        -0.472671     -0.287932      0.170575
O      15.50037      1.92722     11.70095         1.115898     -0.167683      0.054230
O       0.07050     13.62877     11.59667        -0.997936     -0.140638      0.280713
O       3.85569      5.73331      2.78708         0.039824      0.499087     -0.314599
O       3.97359      5.83311     16.06208        -1.029877     -0.324414     -0.239501
O      15.52441      5.84745      2.83786         1.081742     -0.583172     -0.701581
O       0.00893      5.78661     16.05486         0.252108     -0.087159     -0.235873
O       3.83465      5.93681      7.33124         0.512978     -0.631952     -0.933132
O       0.00699      5.76517      7.39854        -0.002346      0.714474     -0.921502
O       3.88363      5.77910     11.66512         0.322971     -0.315274     -0.525002
O       0.05364      5.87504     11.73860        -0.192825     -0.615943     -0.629796
O       3.87364      9.73825      2.84269        -0.240232     -0.389527     -0.210105
O       3.91374      9.72119     16.15583        -0.013538      0.009081     -0.402906
O      15.58985      9.65470      2.91862         0.767696      0.592962     -0.646296
O       0.06511      9.66883     15.99157        -0.559595      0.321588      0.098876
O       3.95842      9.80393      7.32435        -0.215542     -0.442304     -0.263259
O       0.03959      9.83888      7.14844        -0.610534     -0.407510      0.346695
O       3.89375      9.72283     11.67516         0.209590     -0.231224     -0.216966
O       0.02719      9.78478     11.78248        -0.242075     -0.195442     -0.754443
O       7.83426      1.95560      2.85454        -0.566031     -0.063707     -0.687756
O       7.75918      1.91678     16.11589         0.017514      0.000058     -0.200231
O       7.74322     13.63769      2.82895         0.502324     -0.052339      0.080195
O       7.88942     13.56754     16.07304        -1.216701      0.063670     -0.382251
O       7.71805      1.94102      7.38867         0.284434      0.728457     -0.751967
O       7.82614     13.69337      7.23965         0.135683     -0.068576     -0.322995
O       7.78787      1.90264     11.64740         0.197580      0.352822     -0.665625
O       7.86769     13.63308     11.69234        -0.787500      0.104399     -0.448536
O       7.79441      5.76039      2.88197         0.083259      0.175166     -0.513583
O       7.82528      5.84445     16.11072        -0.830972     -0.456801     -0.045538
O       7.70295      5.77715      7.26784         0.488225      0.317203     -0.643686
O       7.85360      5.64866     11.62827        -0.548498      0.698553     -0.526343
O       7.68950      9.60845      2.85361         1.117229      0.583140     -0.025813
O       7.85088      9.71343     16.11342        -0.745812     -0.092227     -0.557895
O       7.88500      9.77880      7.32351        -1.220948     -0.485235     -0.532470
O       7.78429      9.83626     11.76719        -0.251242     -1.011243     -0.458757
O      11.81899      1.93883      2.77082        -0.734249     -0.437650     -0.169238
O      11.66782      1.95972     16.10756         0.055042     -0.622028      0.086290
O      11.65489     13.66590      2.88845         0.403930     -0.259179     -0.617319
O      11.80874     13.59929     16.18466        -0.640766      0.127562     -0.365931
O      11.65302      2.00963      7.29039         0.284574     -0.168941     -0.455266
O      11.74159     13.58616      7.39487        -0.458882      0.718466     -0.672373
O      11.72030      1.94168     11.64699         0.046007     -0.714516     -0.204367
O      11.68727     13.58723     11.75571         0.264165      0.235798     -0.353078
O      11.66341      5.90715      2.85396         0.086522     -0.143372     -0.062728
O      11.68280      5.77037     16.13844        -0.083396      0.197420     -0.465098
O      11.68409      5.78830      7.28329        -0.149962      0.716311     -0.611236
O      11.74547      5.79432     11.75602        -0.401626      0.557272     -0.918972
O      11.68216      9.70171      2.87527        -0.191618     -0.110150     -0.264751
O      11.66550      9.76908     16.08205         0.424835     -0.338216     -0.218103
O      11.67805      9.66151      7.29517         0.827957      0.236567     -0.590126
O      11.67652      9.77276     11.75990         0.741676     -0.361068     -0.586031
O       1.98080      3.92599      2.73083        -0.411840     -0.431220     -0.070128
O       1.94831      3.81330     16.11739         0.104829      1.322794     -0.260247
O       1.85956     15.45018      2.89996         0.327301      0.913505     -0.520564
O       2.10147     15.57896     16.02040        -0.488672      0.197138      0.021000
O      13.67204      3.86222      2.67993        -0.207342      0.077843      0.199728
O      13.61258      3.87922     16.16745         0.505460     -0.128037     -0.157123
O      13.68532     15.56776      2.82440         0.174733      0.025256     -0.438201
O      13.58154     15.56135     16.17263         0.488292     -0.254239      0.014115
O       1.95040      3.86351      7.40386         0.245384      0.077615     -1.230262
O       2.04266      0.00355      7.35209        -0.536860      0.209189     -1.302440
O      13.65259      3.94952      7.46485         0.098798     -0.546210     -1.169510
O      13.57404      0.05237      7.16544         0.108363      0.061567      0.256768
O       1.82759      3.81756     11.74807         1.002556      0.560617     -0.880753
O       1.98048     15.59726     11.60900        -0.110479      0.195004      0.483525
O      13.56882      3.88070     11.72103         1.090001     -0.092197     -0.719945
O      13.70529     15.46045     11.60550        -0.427045      1.098875      0.176022
O       1.93314      7.68992      2.79280         0.290123      0.805786     -0.022445
O       2.01587      7.73149     16.03496        -0.108532     -0.327120     -0.234760
O      13.70481      7.75737      2.91987        -0.713055      0.094430     -0.480060
O      13.66154      7.79914     16.04764        -0.093329     -0.289849     -0.110656
O       1.86956      7.87244      7.18970         0.349748     -1.200855      0.165799
O      13.74390      7.77315      7.34331        -0.645844      0.010865     -0.840682
O       2.01751      7.79497     11.63367        -0.401881     -0.605907      0.023900
O      13.75424      7.76513     11.63256        -0.588234      0.323577     -0.002010
O       1.96232     11.71620      2.86514        -0.217188     -0.668969     -0.535813
O       1.92382     11.67784     16.07648         0.462800      0.136760     -0.220609
O      13.65450     11.69920      2.91450        -0.318818     -0.214405     -0.574133
O      13.65922     11.69852     16.03725         0.562113     -0.353828      0.018296
O       1.94605     11.77669      7.26982         0.346483     -0.166264      0.018045
O      13.73127     11.66869      7.14604        -0.551591     -0.291898      0.080684
O       1.98810     11.75015     11.66562         0.103471     -0.556791     -0.201290
O      13.64473     11.65239     11.69225        -0.023944      0.246262     -0.077903
O       5.78696      3.88756      2.96058         0.473195     -0.505194     -1.221234
O       5.87098      3.82909     16.06567         0.119515      1.023178      0.034471
O       5.86064      0.02750      2.91237        -0.168826     -0.669061     -0.728147
O       5.84813     15.56609     15.96681         0.087441      0.195579     -0.062477
O       5.75463      3.93441      7.25544         0.160924      0.001583     -0.379747
O       5.82978     15.58406      7.26311         0.356364      0.558974     -0.490139
O       5.89232      3.83433     11.65994        -0.506973      0.921812     -0.614463
O       5.89326     15.59480     11.71631        -0.293877     -0.111568     -0.607053
O       5.77387      7.71318      2.82169         0.037556     -0.053290     -0.145943
O       5.84161      7.77082     16.10604         0.375241      0.097857     -0.445724
O       5.80514      7.78090      7.19039         0.371353     -0.412601     -0.146925
O       5.88809      7.63935     11.74475        -0.017833      0.675922     -0.876006
O       5.80344     11.63255      2.79910         0.489260      0.449672     -0.232906
O       5.80144     11.65239     16.05773         0.298753      0.225775     -0.041501
O       5.90036     11.66473      7.31424        -0.293001      0.079982     -0.859605
O       5.81664     11.63183     11.72125        -0.072506      0.656595     -0.651790
O       9.85753      3.84287      2.85668        -0.506189      0.189169     -0.435377
O       9.75514      3.78765     16.13762        -0.540655      0.874718     -0.164874
O       9.71733      0.02714      2.97002         0.096211     -0.479327     -0.802089
O       9.72860     15.52479     16.05675         0.453378      0.236648      0.199982
O       9.75525      3.88172      7.31401        -0.796246      0.609856     -0.493337
O       9.69535      0.06380      7.24778         0.596774     -0.193558      0.168012
O       9.80273      3.82389     11.71698        -0.043459      0.294080     -0.733551
O       9.67392     15.58528     11.69397         0.978094     -0.126852     -0.680976
O       9.69440      7.83891      2.82543        -0.007103     -0.935057      0.125916
O       9.71791      7.68219     16.05556         0.215079      0.890628     -0.134991
O       9.71744      7.85070      7.33507        -0.071807     -1.621633     -0.408513
O       9.69626      7.75819     11.72127         0.264560     -0.317035     -0.389559
O       9.70070     11.69594      2.90212        -0.137572     -0.367744     -0.323454
O       9.82513     11.65015     16.06684        -0.399223      0.133486     -0.089630
O       9.83454     11.73976      7.25138        -0.205332     -0.276192     -0.378184
O       9.75620     11.68749     11.70184         0.228511      0.308150      0.002402
