  # total energy = -7864.77026333 
CRSYTAL
PRIMVEC
    15.010000000000000    0.0000000000000000    0.0000000000000000
     0.0000000000000000   15.010000000000000    0.0000000000000000
     0.0000000000000000    0.0000000000000000    16.400000000000000
PRESSURE
16.8462 16.7136 7.48169 0.062349 -0.164335 0.091797
PRIMCOORD
320 1
Pb       3.68072      3.57575      4.14066         0.026417      0.333478     -0.396679
Pb       3.69460      3.77256     16.32191         0.355621      0.207160     -0.041634
Pb       3.81044     14.92499      4.19452        -0.057329     -0.068338     -1.061213
Pb       3.82663      0.06684     16.35436        -0.037270     -0.185423      0.077325
Pb      14.97419      3.79295      4.25316         0.253621     -0.569046     -0.708811
Pb      14.88417      3.77565      0.05914         0.404205      0.153761     -0.369735
Pb      14.92467     15.00493      4.30648         0.055556     -0.110385     -1.408443
Pb       0.06493      0.04099     16.27413        -0.770424     -0.261188      0.621350
Pb       3.73188      3.72719      8.11993         0.041106      0.099395      0.494720
Pb       3.83217     14.99601      8.30460        -0.434205     -0.345071      0.320124
Pb       0.07432      3.73022      8.10267        -0.063247      0.524332     -0.143395
Pb       0.15432     14.93527      8.26485        -0.496044     -0.274121     -0.469147
Pb       4.02284      3.70788     12.35270        -0.789693      0.080671      0.073659
Pb       3.70489     15.00121     12.34124        -0.250398     -0.291239      0.059393
Pb       0.05183      3.82485     12.27714         0.094504      0.546871      0.168577
Pb      14.97687     14.98274     12.22963         0.388442     -0.420010      0.334603
Pb       3.64465      7.64640      4.23707         0.392227     -0.236087     -1.544735
Pb       3.76487      7.54462     16.39407        -0.505614     -0.147322      0.402729
Pb      14.86993      7.57158      4.12221         0.260582     -0.356206     -0.641530
Pb      14.91447      7.46764      0.03724         0.211632      0.057470      0.194784
Pb       3.69962      7.52770      8.29507         0.529592     -0.127592      0.166571
Pb       0.03262      7.48760      8.08532        -0.598077      0.040811      0.894630
Pb       3.72547      7.29546     12.40292        -0.088121      0.553842     -0.253242
Pb       0.00577      7.48868     12.23491        -0.281079     -0.853066      0.106900
Pb       3.58251     11.21881      4.06208         0.503861      0.068344     -0.138172
Pb       3.67490     11.32293      0.06987         0.149489     -0.732889     -0.402209
Pb      14.86334     11.17609      4.17150         0.014944      0.890618     -0.789350
Pb      14.94552     11.31746      0.04483        -0.432761     -0.363719      0.089675
Pb       3.52855     11.20589      8.26129         0.754647     -0.039138     -0.206374
Pb      14.99040     11.15880      8.11409        -0.490056      0.257435      0.338456
Pb       3.67858     11.09333     12.47768        -0.088150      0.346650     -0.605484
Pb      14.95875     11.17946     12.31716         0.608844      0.685581      0.094784
Pb       7.45531      3.86514      4.27082         0.182454     -0.784424     -0.964002
Pb       7.51667      3.71796      0.19916         0.502705      0.026819     -0.295120
Pb       7.54289      0.04062      4.26875        -0.543714      0.021390     -0.585546
Pb       7.61543      0.03341      0.00994        -0.209553     -0.137240      0.000134
Pb       7.61269      3.77911      8.15919        -0.556291     -0.564270      0.504245
Pb       7.44338     14.92728      8.31305         0.125005      0.101944      0.021601
Pb       7.57690      3.69806     12.39365         0.521255      0.592361     -0.194757
Pb       7.52729      0.00056     12.26148         0.148766     -0.315292      0.356350
Pb       7.34597      7.46651      4.20062        -0.231944      0.373926     -0.559974
Pb       7.49590      7.38494      0.09514         0.469497      0.779890      0.320699
Pb       7.51348      7.41553      8.10215         0.148268      0.400155      0.370725
Pb       7.57962      7.54383     12.34952         0.254437     -0.442890     -0.249596
Pb       7.21940     11.19898      4.20107         0.297780      0.483112     -0.217386
Pb       7.37204     11.30529      0.05348         0.865871     -0.349933     -0.617405
Pb       7.40167     11.10549      8.23012         0.428589      0.343077      0.605247
Pb       7.51607     11.22142     12.44571         0.682908      0.112488     -0.489756
Pb      11.34012      3.67767      4.25730        -0.171768     -0.004379     -0.881286
Pb      11.36840      3.82336      0.10180        -1.000121     -0.026128     -0.479995
Pb      11.26690     14.99427      4.20672         0.118608     -0.229615     -0.123539
Pb      11.39592      0.13446     16.36421        -0.341931     -0.444989     -0.266687
Pb      11.45223      3.72389      8.26507        -0.882375     -0.109699      0.009916
Pb      11.30106     14.89735      8.20792        -0.334785      0.382734      0.527768
Pb      11.30884      3.73648     12.20706        -0.660037      0.394014      0.507719
Pb      11.30844     14.86425     12.35000        -0.500425      0.828008     -0.622421
Pb      11.20251      7.52196      4.15651        -0.197480      0.118501     -1.056624
Pb      11.23399      7.42367      0.13938        -0.323163      0.647754      0.332115
Pb      11.22956      7.51822      8.10588         0.246726      0.353476      0.680649
Pb      11.25262      7.44141     12.38641         0.029916     -0.102933     -0.576130
Pb      11.02836     11.29733      4.18719         0.575401      0.546508     -0.735160
Pb      11.13432     11.33024      0.01138         0.132224     -0.200885      0.658064
Pb      11.14206     11.24660      8.21964         0.355765      0.222322      0.219950
Pb      11.25298     11.11916     12.43046        -0.709347      0.398574     -0.751170
Ti       1.84234      1.93035      1.96189         0.294289     -1.680170      0.952068
Ti       1.90377      1.92714     14.35623        -0.783006     -1.167518     -0.427538
Ti       1.84890     13.07575      2.02844        -0.816683      1.766388      0.626026
Ti       1.84555     13.13972     14.51067         0.402958      0.140170     -1.780700
Ti      13.14063      1.77676      2.11318         1.154868      0.783475      0.675877
Ti      13.17626      1.97828     14.20765        -1.550171     -0.490254      0.870608
Ti      13.10696     13.10451      2.04289        -0.339547     -0.203699     -0.008222
Ti      13.08208     13.14618     14.30251         1.205995     -0.378144      1.309022
Ti       1.88597      1.81098      6.19726        -0.486795      0.866880     -0.775916
Ti       1.85867     13.15865      6.07522        -0.215388     -1.703619      0.190839
Ti      13.11298      1.88754      6.27958         0.703498     -0.415160     -0.858408
Ti      13.07017     13.17101      6.27071         0.247062     -1.244461     -1.132770
Ti       1.77698      1.87678     10.22348         2.325626     -0.237265      0.776863
Ti       1.92210     13.06459     10.26285        -0.955299     -0.448835      0.719227
Ti      13.14274      1.89963     10.25507        -1.607882     -0.945686     -0.215251
Ti      13.15539     13.07997     10.22648        -0.331417     -0.046626     -0.050854
Ti       1.88938      5.59089      2.13418        -0.578700      1.387314     -0.712578
Ti       1.84378      5.66959     14.44776        -0.291973     -0.618052     -0.398580
Ti      13.13774      5.57522      2.10839        -0.170469      0.549664     -0.188306
Ti      13.09460      5.66813     14.37292        -0.310190     -0.566623     -0.809160
Ti       1.88913      5.70101      6.10231        -1.416344     -0.823062      0.419499
Ti      13.08090      5.64167      6.12877         1.149147     -0.092848      1.425588
Ti       1.94593      5.60314     10.19060        -0.909328      0.935844      0.184798
Ti      13.11219      5.62296     10.17371         0.996431      1.543972      0.554714
Ti       1.73146      9.33659      1.97111        -0.189628     -0.974421      0.301502
Ti       1.74797      9.36898     14.35471         0.784160     -0.184549      0.614397
Ti      12.95551      9.38743      1.97125         0.474250      0.273242      1.263325
Ti      13.05748      9.39634     14.39187        -0.111878     -0.765318      1.262207
Ti       1.84124      9.37750      6.20261        -0.138813      1.284321     -0.694818
Ti      13.04996      9.40912      6.10505        -0.440992      0.646683      0.592288
Ti       1.85762      9.29201     10.30992         0.414048      0.657415     -0.094580
Ti      13.13370      9.37315     10.30463        -0.504367     -0.969201     -1.118474
Ti       5.66600      1.86528      2.07793        -0.066612     -0.631653      0.941754
Ti       5.76361      1.82399     14.42882        -1.167902     -0.307717      0.281710
Ti       5.58815     13.14702      2.01375        -0.495338      0.719501      1.434554
Ti       5.65162     13.02158     14.35755        -0.006718      1.703154      0.125023
Ti       5.56838      1.81800      6.25096         0.715271     -0.732633     -0.327105
Ti       5.54880     13.02725      6.31064         0.026168      0.736976     -0.819192
Ti       5.58520      1.82997     10.32607         0.223559     -0.152149     -1.008855
Ti       5.63543     13.03130     10.34659         0.339016     -0.343242     -0.499725
Ti       5.57087      5.56389      2.07823        -0.034376      0.547497      0.387525
Ti       5.75376      5.63055     14.42259        -1.218061     -0.815773      0.973701
Ti       5.51848      5.54869      6.16997         0.656521      0.765031      0.035935
Ti       5.65952      5.61797     10.22585         0.615567      0.425506     -0.213107
Ti       5.50099      9.38283      2.08840        -0.541023     -0.934288      0.222054
Ti       5.63585      9.28496     14.37831        -0.232034      0.471060      0.235328
Ti       5.56132      9.32016      6.25905        -0.247389      0.901852     -0.917736
Ti       5.63974      9.29377     10.41002        -0.211506      0.186130     -0.620151
Ti       9.44890      1.85897      2.15655        -1.685856      0.730541     -0.744677
Ti       9.43205      1.94373     14.43570         0.589672      0.128983     -0.791097
Ti       9.29237     13.17089      2.17424         1.592527     -0.436354     -0.479081
Ti       9.44938     13.26773     14.36959        -1.961307     -1.995174      0.119141
Ti       9.36409      1.87760      6.23975        -0.406539     -0.152533     -0.279258
Ti       9.29813     13.23465      6.24276        -0.360966     -1.589877     -0.488829
Ti       9.34914      1.86345     10.28912         0.618066     -0.072406     -0.234236
Ti       9.37851     13.11763     10.25089        -0.180598     -0.798092      0.319681
Ti       9.31500      5.63930      2.17933         1.065082     -0.186766     -0.503813
Ti       9.39323      5.73966     14.45356         0.620937     -1.503678     -0.127415
Ti       9.39882      5.60059      6.12271        -0.021400      0.292990      0.256247
Ti       9.41432      5.59845     10.19604        -0.586253      0.362279      0.622700
Ti       9.18567      9.43904      2.17601         1.361027     -0.224939     -1.291987
Ti       9.39984      9.43033     14.44816        -0.878896      0.403608      0.567217
Ti       9.32050      9.46742      6.10816        -0.612795     -0.600519      1.136133
Ti       9.42104      9.34228     10.12631        -0.867452      0.256223     -0.146772
O       1.68516      1.87078      0.12488         0.453341      0.728225      0.624004
O       1.63553      1.73156     12.52189         0.879781      0.384021     -0.452261
O       1.78264     12.99934      0.13984         0.514833      0.309733      1.003043
O       1.78047     13.15296     12.64957         0.269988      0.112311     -0.434914
O      13.16134      1.91494      0.25396        -0.292585     -0.389953      0.515474
O      13.13833      2.00722     12.41515         0.312606     -0.143396     -0.790924
O      13.04091     13.13167      0.18869         0.255508      0.380158      0.546065
O      13.09756     13.03819     12.50857         0.102197     -0.007772     -0.661675
O       1.87428      1.84287      4.37189         0.378363     -0.198757      0.216779
O       1.84787     13.06551      4.23563         0.213955      0.319632      0.888565
O      13.18210      1.91064      4.37488        -0.107659     -0.105672      0.801090
O      13.04242     13.12704      4.42414         0.037086     -0.096139     -0.451641
O       1.88179      1.71866      8.40349         0.178131      0.798381      0.273964
O       1.86615     13.04542      8.43464        -0.154367      0.114169      0.281871
O      13.06302      1.86497      8.37772         0.197243     -0.063276      0.411218
O      13.16484     13.11119      8.34077        -0.006857      0.027855      1.825479
O       1.80450      5.58231      0.26597        -0.050635     -0.563305     -0.017721
O       1.75624      5.73163     12.57267         0.503536     -0.580041      0.480367
O      13.20658      5.70602      0.20814        -0.307895     -0.682736      0.911665
O      13.03085      5.58391     12.48738         0.173982     -0.211206      0.348229
O       1.74464      5.70996      4.31075         0.659395      0.158538      0.051051
O      13.06916      5.60545      4.34787        -0.134086     -0.072216     -1.081774
O       1.82480      5.76269      8.35672         0.508514     -0.589251      0.787428
O      12.97849      5.63359      8.33674         0.867178      0.196410      0.601971
O       1.81061      9.38263      0.16629         0.112477      0.288572     -0.209048
O       1.84343      9.24687     12.48805        -0.242728      0.432958      1.089095
O      13.02595      9.26685      0.20180         0.301459      0.250675     -0.393742
O      13.04087      9.38382     12.58596         0.012455      0.062171     -1.011540
O       1.68563      9.26690      4.34098         0.282673      0.317450      0.599971
O      13.06650      9.42715      4.25500        -0.110585     -0.157538      1.195902
O       2.00236      9.31546      8.39363        -0.600503      0.158448      0.638162
O      13.13321      9.31852      8.48474        -0.283992      0.222058     -0.310075
O       5.69095      1.78501      0.31165        -0.196638      0.333294     -1.846821
O       5.73506      1.83574     12.58166        -0.261674      0.186215     -0.400684
O       5.46857     13.12540      0.24430         0.532741     -0.183509     -0.681109
O       5.75749     12.94979     12.54384        -0.556831      0.525862     -0.504432
O       5.60546      1.80728      4.37078        -0.280883      0.230458      0.260299
O       5.54864     13.05412      4.43818        -0.016844      0.293404     -0.300683
O       5.50949      1.75797      8.42057         0.075209      0.283532      1.070205
O       5.72706     13.10578      8.37552        -0.719054     -0.076477      1.465702
O       5.67091      5.55865      0.23836        -0.178891      0.027511      0.647883
O       5.70100      5.68952     12.63732        -0.648179     -0.441322     -0.736620
O       5.56759      5.51830      4.34799        -0.033313      0.014625      0.380459
O       5.62921      5.67511      8.34848         0.109185     -0.156354      1.102469
O       5.51875      9.32158      0.27261         0.279900      0.429472     -0.162476
O       5.65312      9.19488     12.49406         0.064100      0.604723      1.178743
O       5.54288      9.38472      4.29144         0.116227      0.067743      1.374223
O       5.55841      9.30067      8.51867         0.158562      0.084718     -0.583366
O       9.39829      1.90903      0.23716         0.450322     -0.178736      0.936872
O       9.18124      1.82030     12.55772         0.414722      0.212761     -0.237451
O       9.35679     13.01932      0.33517        -0.063387      0.545242      0.249479
O       9.37357     13.14128     12.55947         0.104029      0.031044     -0.514352
O       9.25881      1.88123      4.37487         0.193866     -0.121122      0.171828
O       9.49396     13.19893      4.37735        -0.607611      0.566525      0.229248
O       9.37740      1.96624      8.43541        -0.124488     -0.201600     -0.078264
O       9.34316     13.09471      8.39138         0.033309      0.106700      0.235968
O       9.32970      5.63169      0.32926        -0.280212      0.045538     -0.602010
O       9.47327      5.61699     12.64709         0.012829      0.282144     -0.668736
O       9.41069      5.57433      4.27791         0.238127      0.345320      0.589647
O       9.25385      5.47305      8.38347         0.533037      0.303694     -0.248973
O       9.26792      9.39885      0.28010        -0.333650      0.448941      0.908208
O       9.43261      9.21809     12.62016         0.093696      0.792266     -0.550420
O       9.19476      9.24958      4.31732         0.584441      0.139487     -0.169333
O       9.34454      9.42081      8.21860        -0.335508     -0.328240      2.352454
O       3.77088      2.32208      2.17856        -0.783915     -0.508456      0.167157
O       3.74297      1.74665     14.59580         0.593355     -0.167845     -0.199333
O       3.69549     12.89472      2.27615        -0.121623     -0.443206      0.085749
O       3.80541     13.45824     14.55281        -1.079202     -1.001430      0.079790
O       0.04769      1.56636      2.43615        -0.841128      0.094705     -0.629374
O      14.92021      2.19973     14.51167         1.150599     -0.407896      0.406308
O      15.00778     13.30744      2.38124         0.155192      0.621968     -0.194557
O      14.95877     12.91772     14.71482        -0.264531      0.491818     -0.620306
O       3.71301      2.13084      6.47135         0.013393     -0.384280     -0.215203
O       3.70751     12.74534      6.37821        -0.600274      0.532212      0.137607
O       0.02453      1.81639      6.42570        -0.256971     -0.594445      0.458914
O      14.96778     13.17703      6.28530         1.361439      0.409563      0.577995
O       3.72999      1.82763     10.63931        -0.145182      0.564220      0.069807
O       3.75323     12.81782     10.54863         0.626784      0.026356      0.156621
O      14.99769      1.72406     10.32851        -0.312788     -0.454559      0.388787
O       0.01715     13.24125     10.54457        -0.405472      0.345575     -0.275772
O       3.74480      5.33069      2.38439        -0.074779     -0.492394     -0.212856
O       3.70228      5.80940     14.72633         0.575357     -0.333009     -0.608749
O      14.97378      5.83453      2.38949        -0.013818      0.545101     -0.071520
O      14.89781      5.46120     14.57306         1.759985     -0.689684      0.182395
O       3.65915      5.44130      6.47179         1.433278      0.095946     -0.216414
O      14.99222      5.77733      6.47141         0.165722      0.020423     -0.362306
O       3.78080      5.46789     10.55211        -0.233901     -0.272851      0.122806
O       0.04621      5.72943     10.47256        -0.888285      0.277901     -0.059490
O       3.59988      9.47357      2.33765         0.747518      0.651852      0.112930
O       3.74870      9.11408     14.57763        -0.455929      0.514113     -0.377372
O      14.87136      8.90155      2.26775         0.440188      0.897541     -0.248333
O      14.92323      9.62791     14.66786         0.544390     -0.451790     -0.515016
O       3.73974      9.71287      6.27975        -0.384485     -0.340297      0.269273
O      14.91448      9.24768      6.49561         0.397174     -0.054325     -0.563859
O       3.74017      9.53111     10.59975         0.256090      0.226257     -0.143092
O      14.99532      9.01328     10.46803         0.200988      0.572837      0.024460
O       7.53733      1.44027      2.24644         0.239402      0.258867      0.336282
O       7.54966      1.91563     14.72378        -0.385376      0.686260      0.068049
O       7.45316     13.33936      2.31518        -0.379125      0.201706      0.165027
O       7.51570     12.95676     14.65021        -0.005047     -0.133793      0.326036
O       7.41799      1.56317      6.43782         0.391485      0.239034      0.069701
O       7.42998     13.42920      6.40320         0.541099      0.184957     -0.218692
O       7.47726      1.58998     10.42759        -0.055599      0.627681      0.157634
O       7.54742     13.28386     10.47093        -0.503467     -0.083019      0.139433
O       7.47234      5.81701      2.35981        -0.391388      0.757165      0.253509
O       7.55448      5.41876     14.61145        -0.369354     -0.096698      0.437808
O       7.50288      5.81384      6.32220        -0.881036     -0.213019     -0.070932
O       7.53045      5.77815     10.65803        -0.742258     -0.118535     -0.777803
O       7.35940      9.14004      2.36998         0.577729      0.291844     -0.166990
O       7.48980      9.64692     14.63764        -0.714305     -0.151844     -0.011908
O       7.43984      9.11858      6.40392         0.232025     -0.151861     -0.038817
O       7.56491      9.02583     10.49314        -0.633124      0.106702     -0.102141
O      11.25884      2.07201      2.46848         0.837054      0.474153     -0.394934
O      11.25696      1.56916     14.45734         0.539277      0.525555      0.303533
O      11.28318     12.72614      2.28462        -0.227310      0.742117      0.384670
O      11.25874     13.41171     14.57210         0.494660     -0.264982      0.312598
O      11.24411      2.06132      6.31115        -0.272384      0.210908      0.290665
O      11.21918     13.04322      6.46269        -0.664101     -0.375639      0.425872
O      11.19780      1.99165     10.48285         1.142263      0.365161      0.098958
O      11.24421     12.91382     10.51732         1.355396     -0.315122     -0.134889
O      11.28340      5.36807      2.15248        -0.840024     -0.455153      0.761519
O      11.23656      5.86151     14.79013        -0.170135     -0.159077     -0.207419
O      11.31281      5.24657      6.39529        -2.249722      0.621222     -0.255472
O      11.28550      5.43893     10.44254        -0.892372     -0.552844      0.002582
O      11.17484      9.79584      2.31667         0.025508     -0.769083      0.044253
O      11.17278      9.20187     14.77343         1.216871     -0.233380     -0.502783
O      11.12815      9.64873      6.59433         1.839892     -1.203065     -1.633420
O      11.24048      9.58453     10.43616         0.245627      0.050014      0.294375
O       1.51834      3.76789      2.37673         0.305338     -0.763201     -0.020010
O       2.04125      3.69946     14.50235        -0.119950      2.040256      0.218127
O       2.20366      0.02123      2.17643        -0.401739     -0.058487     -0.094225
O       1.71592      0.03173     14.69922        -0.386817     -0.346955     -0.262056
O      13.43015      3.69758      2.38685        -0.511020      0.090415     -0.463357
O      12.80956      3.80058     14.61987         0.072504     -1.026457     -0.058545
O      12.88504     14.97668      2.48537         0.109473      0.147703     -0.682167
O      13.23508      0.01858     14.46120         1.006000      0.286073      0.187912
O       1.77856      3.76723      6.34152        -0.508828      0.229276      0.530829
O       1.97177     14.94709      6.53442         0.393145      0.096606     -0.449351
O      13.32952      3.75000      6.46913        -0.032169      0.042983     -0.092060
O      13.00975      0.00193      6.48284         0.131719      0.815592     -0.092075
O       1.75751      3.77014     10.39844         0.075813     -1.514411      0.194082
O       2.09402     14.90778     10.44446        -0.723807      0.802033      0.241257
O      13.25905      3.74786     10.37067         0.207115     -0.202619      0.173003
O      12.98384      0.00033     10.54669         0.236012     -0.653114     -0.304884
O       2.12426      7.49319      2.17072        -0.314182     -0.866615      0.556037
O       1.64672      7.48936     14.74863        -0.102470      0.605918     -0.589173
O      12.69586      7.48141      2.30772         0.430958      0.102202      0.337672
O      13.28063      7.47225     14.55826        -0.078315      1.493516     -0.035583
O       2.12641      7.60000      6.49421        -0.377514     -1.536980     -0.538230
O      12.89158      7.50770      6.36583        -0.110168      0.386949     -0.210955
O       2.04000      7.48463     10.59171         0.441870     -1.011710     -0.393229
O      12.86603      7.48473     10.54266         0.352154     -0.370714      0.007901
O       1.55105     11.17299      2.24294         0.148173      0.740719      0.311722
O       2.03220     11.24889     14.53237         0.545521     -0.698323      0.103151
O      13.49775     11.26480      2.18586        -0.186700     -1.035309      0.312762
O      12.83241     11.22458     14.60680         0.045024      0.923641     -0.234134
O       1.72755     11.24441      6.52907        -0.568009     -0.039244     -0.517515
O      13.25009     11.26863      6.42026        -0.206685     -1.395363      0.049264
O       1.63453     11.14078     10.58116         0.102980      0.796193     -0.117792
O      13.46831     11.20012     10.52793        -0.699185      0.811906     -0.240284
O       6.06071      3.67294      2.28971        -0.492566      1.105529      0.192990
O       5.47704      3.75047     14.66475        -0.007163     -0.424150     -0.349986
O       5.23561      0.00988      2.29665         0.245980     -0.814524      0.344156
O       5.81981     14.96933     14.66487        -0.022508      0.450560     -0.125736
O       5.76425      3.73763      6.50025        -0.080380     -0.259374     -0.075725
O       5.14295     14.97772      6.42572         0.799762     -0.005728     -0.350184
O       5.62555      3.71822     10.60018         0.803079     -0.189601     -0.195509
O       5.59770     14.90156     10.55730        -1.028929      0.360773      0.122716
O       5.35845      7.45075      2.40853         0.108415     -0.205971     -0.239504
O       5.82449      7.47563     14.80099         0.087619      0.296024     -0.526409
O       5.27233      7.51584      6.27649         0.375839     -0.951163      0.458957
O       5.30892      7.42272     10.58627         0.745347      0.018966     -0.448795
O       5.64773     11.25794      2.35326         0.480849     -0.074265     -0.283214
O       5.45144     11.23063     14.66951        -0.535690     -1.119004      0.080504
O       5.95686     11.22778      6.45343        -0.468630     -0.672751     -0.241662
O       5.95970     11.18395     10.65529        -0.506399     -0.214083     -0.709585
O       9.01951      3.79047      2.30768         0.510758     -1.392523      0.217350
O       9.61597      3.73676     14.59876        -0.075734      0.614779      0.234597
O       9.78320      0.02829      2.34018        -0.585519     -1.130322     -0.068795
O       9.27168      0.02212     14.66667        -0.524881      0.109489      0.428954
O       9.05820      3.71670      6.35897         0.260055      0.293868      0.048508
O       9.55854      0.00683      6.46869         0.012255      1.002746      0.239914
O       9.21008      3.78247     10.61723        -0.207989     -1.276812     -0.110705
O       9.65633     14.94977     10.51267        -0.651471      0.758560     -0.189469
O       9.65013      7.58281      2.28002        -0.273187     -0.585772      0.538728
O       9.12851      7.55059     14.57604        -0.341986     -0.237744      0.809265
O       9.52457      7.42376      6.46178         0.246210      0.321677     -0.491955
O       9.62554      7.43645     10.33842         0.105424      0.565451      0.353080
O       9.18913     11.31449      2.60622        -1.015726     -0.615500     -0.440897
O       9.59566     11.35217     14.65203        -0.121287     -0.930347     -0.570052
O       9.08803     11.28223      6.34614        -0.064350      0.165312     -0.213917
O       9.18211     11.16080     10.49434        -0.064610      0.492901      0.088510
