  # total energy = -7880.22108798 
CRSYTAL
PRIMVEC
    15.6000000000000000    0.0000000000000000    0.0000000000000000
     0.0000000000000000   15.6000000000000000    0.0000000000000000
     0.0000000000000000    0.0000000000000000    17.640000000000000
PRESSURE
-3.46853 -3.64306 -0.402555 -0.121186 0.723524 0.013728
PRIMCOORD
320 1
Pb       3.83375      3.90033      4.34999        -0.228282      0.141812     -0.145723
Pb       3.91069      3.90087     17.55961        -0.052574      0.323332     -0.270070
Pb       3.86507      0.08413      4.32028         0.185118     -0.448414      0.162933
Pb       3.84953     15.54530     17.58466         0.027682      0.435186      0.089945
Pb      15.55962      3.82682      4.39638         0.424374      0.727510     -0.189642
Pb      15.53544      3.92845     17.54880         0.227523      0.175966     -0.320994
Pb       0.01262      0.07980      4.41431         0.104430     -0.635264     -0.009805
Pb      15.53124     15.57042     17.51012         0.278578      0.138219     -0.244857
Pb       3.90703      3.86249      8.76540        -0.184681     -0.236972     -0.048274
Pb       3.95710     15.51467      8.71201        -0.372128      0.570439      0.412369
Pb      15.55910      3.92459      8.78187         0.285523     -0.227960      0.093418
Pb       0.02783     15.42921      8.68713        -0.229633      0.547089      0.420604
Pb       3.89238      3.77637     13.27707        -0.171734     -0.181906     -0.240827
Pb       3.80848     15.52758     13.15292         0.004810      0.508351      0.393871
Pb      15.52622      3.87001     13.01671         0.210973     -0.244384      1.083456
Pb      15.54699     15.57378     13.11467         0.291906     -0.006752      0.309420
Pb       3.88204      7.75336      4.52098        -0.196245      0.104257     -0.498246
Pb       3.86789      7.70190     17.63663         0.275059     -0.126030     -0.252466
Pb      15.59331      7.91679      4.28065        -0.051331     -0.547744      0.501688
Pb       0.02742      7.73269     17.55324        -0.292459     -0.305349      0.314539
Pb       3.95043      7.73720      8.68369        -0.304837      0.252486      0.273308
Pb      15.52543      7.68012      8.79007         0.426517      0.136790      0.219137
Pb       3.80836      7.63410     13.15518         0.474232      0.940721      0.343638
Pb       0.09809      7.73557     13.20155        -0.276092      0.213863     -0.136102
Pb       3.87236     11.74907      4.37268         0.377342      0.131104     -0.399174
Pb       3.83668     11.71553      0.04957        -0.120661     -0.462644     -0.272609
Pb      15.57729     11.76324      4.33398        -0.208734     -0.445711      0.504800
Pb      15.56579     11.74304     17.47481        -0.317364     -0.270580      0.321231
Pb       3.82165     11.58080      8.76609         0.737292      0.287724      0.122383
Pb      15.58484     11.71509      8.71369        -0.525631     -0.309272      0.142350
Pb       3.83871     11.70159     13.15684        -0.061339     -0.269583     -0.274059
Pb      15.49689     11.65292     13.06060        -0.129950      0.098233      0.536527
Pb       7.66482      3.91862      4.34803         1.035089     -0.074773      0.230760
Pb       7.73109      3.90654     17.57077         0.350402      0.288665      0.224432
Pb       7.74491      0.16154      4.35505         0.003919     -0.606325     -0.322814
Pb       7.82119      0.09487     17.46238         0.015528     -0.486728      0.549950
Pb       7.65210      3.78476      8.88645         0.333087      0.261921     -0.287696
Pb       7.77640     15.52842      8.89718        -0.025667      0.176207     -0.359061
Pb       7.79498      3.90810     13.22899        -0.032696      0.323305     -0.414193
Pb       7.78121     15.58706     13.15410         0.395523     -0.345618      0.083023
Pb       7.81003      7.96654      4.38788         0.564449     -0.581658      0.093522
Pb       7.70912      7.82792      0.07838        -0.182242      0.258555     -0.213323
Pb       7.73262      7.77450      8.71865         0.634415     -0.158005      0.175772
Pb       7.59775      7.81997     13.18497         0.425442      0.002343     -0.200901
Pb       7.89575     11.79979      4.36688        -0.220297      0.158987     -0.279312
Pb       7.75917     11.61103     17.58776         0.238882     -0.264165      0.077927
Pb       7.77261     11.69471      8.71089         0.019202     -0.004356      0.301474
Pb       7.85268     11.61192     13.19889        -0.134165      0.226900     -0.304689
Pb      11.66079      3.92062      4.37722        -0.307324      0.472103      0.183665
Pb      11.74176      3.84777     17.58695        -0.199128      0.126453      0.335762
Pb      11.69945      0.18494      4.43339        -0.044980     -0.321976     -0.373692
Pb      11.63497     15.55614     17.53698         0.186788      0.485315      0.211572
Pb      11.66128      3.81260      8.74525         0.068778      0.387646      0.145006
Pb      11.79300      0.02930      8.85242        -0.287887      0.066746     -0.287847
Pb      11.56979      3.82079     13.16209         1.007404      0.109709     -0.129842
Pb      11.65434     15.47179     13.06712         0.071458      0.368877      0.657170
Pb      11.60041      7.82965      4.39262         0.142482     -0.672761      0.297312
Pb      11.45928      7.80309     17.60187         0.800366      0.110638      0.764700
Pb      11.62935      7.78454      8.68733         0.035143     -0.931934      0.066589
Pb      11.56623      7.71673     13.15270         0.483035      0.381656     -0.057932
Pb      11.69876     11.81428      4.24042        -0.066993     -0.525395      1.019176
Pb      11.80700     11.64576     17.48394        -0.056370     -0.063032      0.221815
Pb      11.74136     11.52765      8.70788         0.522935      0.631337      0.615964
Pb      11.64951     11.59778     13.07511         0.422105      0.206773      0.457176
Ti       1.93257      1.91579      2.30226         0.534079      0.543460      0.433943
Ti       1.98161      1.93719     15.61581        -0.714001     -0.362854     -1.172307
Ti       1.90285     13.61978      2.35691         0.454955      0.949461     -0.775455
Ti       2.03881     13.60623     15.66899        -1.193314      0.346321      0.764239
Ti      13.68446      1.92846      2.38584        -0.317302      0.284116     -0.324242
Ti      13.66029      2.00886     15.63679         0.358370     -0.370299     -0.149857
Ti      13.56387     13.66147      2.40022         0.984286     -0.351019     -0.325787
Ti      13.63692     13.72701     15.60269         0.406552     -0.455827     -0.611918
Ti       1.85967      1.97470      6.78947         0.646731     -0.464034      0.632236
Ti       1.90273     13.57432      6.89632         1.028464      0.841960      2.504190
Ti      13.62664      1.91857      6.75308         0.042449      0.587360      1.266873
Ti      13.52766     13.62855      6.74250         0.735547     -0.175456      0.409379
Ti       1.98647      1.88130     11.22105        -0.190336      0.192703      1.372708
Ti       1.96515     13.61402     11.16436        -1.334411     -0.273992      0.098297
Ti      13.67498      1.90018     11.11107        -0.004647      0.890267      0.146352
Ti      13.55594     13.67933     11.21969         1.103553     -1.798143     -1.282798
Ti       2.01984      5.90071      2.48564        -0.860240     -1.408326     -0.124860
Ti       1.92644      5.82487     15.53926        -0.012610     -0.596940      1.354099
Ti      13.68176      5.82353      2.42519         0.133132      0.229650     -1.412345
Ti      13.49333      5.93032     15.68729         1.886664     -0.729374     -1.539665
Ti       2.00263      5.83706      6.78912        -0.453506     -0.519991     -0.179728
Ti      13.69690      5.77085      6.92176        -0.877773      0.339275      1.961183
Ti       2.04209      5.74091     11.28526        -1.107847      0.503350     -0.960325
Ti      13.69294      5.86258     11.22571        -0.167744     -0.679843     -0.314708
Ti       1.96159      9.74303      2.39144         0.438129     -0.066243      0.924655
Ti       1.93922      9.67020     15.59494        -0.521454      0.376646      0.991970
Ti      13.63046      9.72266      2.39519        -0.019366      0.102564      0.772853
Ti      13.65555      9.67359     15.60749        -0.459090      0.316516      0.361395
Ti       1.96826      9.69699      6.86421         0.197418     -0.400506     -1.200995
Ti      13.70475      9.59939      6.74493         0.188032      0.812403     -0.182500
Ti       1.94163      9.70193     11.19806         0.578536     -0.709554      0.674414
Ti      13.67067      9.64086     11.09347         0.055480      0.842963      1.256422
Ti       5.77552      1.96816      2.32836         0.272840     -0.760264      0.523230
Ti       5.87787      1.93387     15.50871        -1.342408      0.613057      0.248711
Ti       5.87090     13.66490      2.32304        -0.103820     -0.238630      0.861542
Ti       5.91474     13.60462     15.66061         0.101107      0.338901     -0.918335
Ti       5.87072      1.86714      6.74334        -0.570217      0.049296      0.873811
Ti       5.83737     13.66041      6.84898        -0.455802     -0.169319     -0.081752
Ti       5.87712      1.98885     11.30122        -0.631400      0.076309     -1.082111
Ti       5.81894     13.73504     11.20488         0.513317     -0.730137     -0.453516
Ti       5.92923      5.85700      2.48023        -0.499366     -0.154465     -0.056489
Ti       5.94870      5.87696     15.66523        -0.892781      0.429647      0.198960
Ti       5.86739      5.81463      6.80485         0.287632     -0.588300     -0.313892
Ti       5.85278      5.83389     11.15696         0.445389     -0.222308     -0.405763
Ti       5.86537      9.72297      2.45927         0.449330      0.650163     -1.147546
Ti       5.75850      9.75099     15.52435         0.459557     -1.254839      2.602865
Ti       5.95610      9.79455      6.73413        -1.255891      0.151995      1.821012
Ti       5.85060      9.80968     11.17270        -0.344261     -0.666863      1.715744
Ti       9.77359      1.99385      2.33877        -0.263508      0.199668      0.892607
Ti       9.74133      1.97242     15.63872         0.727841     -0.440237      0.686195
Ti       9.74545     13.71398      2.34710        -0.348714      0.118232      0.261588
Ti       9.78595     13.53755     15.62935        -0.303047      0.593948     -0.506380
Ti       9.63989      1.84048      6.87216         1.230621      1.331077      0.925103
Ti       9.73555     13.63345      6.89442         0.477483      0.027078     -0.656217
Ti       9.73894      1.96332     11.25023         0.533248     -0.413595     -2.061262
Ti       9.68325     13.62480     11.14964         0.294150     -0.119569      1.055078
Ti       9.76792      5.85460      2.42946         0.394077     -0.276662     -0.182607
Ti       9.79129      5.82824     15.58153        -1.081406     -0.414969      0.805886
Ti       9.67225      5.73214      6.86554         1.431505      0.458296     -1.342820
Ti       9.77001      5.79829     11.21294        -0.380232      0.486455     -0.449747
Ti       9.78847      9.78141      2.41551        -0.462340     -0.441763     -0.579412
Ti       9.71186      9.64661     15.60193         0.614513      1.025800     -0.618355
Ti       9.80159      9.74068      6.84588        -0.087785     -0.945455     -0.183256
Ti       9.79044      9.71373     11.16607        -0.459978     -0.318840      0.191776
O       1.91757      1.83677      0.56028         0.101398      0.208514     -0.038814
O       2.00457      1.78308     13.83747         0.123832      0.197933     -0.050036
O       1.87851     13.70432      0.57018         0.178770     -0.466072      0.315541
O       2.14991     13.61827     13.98256        -0.171187      0.018181     -1.916293
O      13.63393      1.89266      0.61692         0.304834      0.262830      0.604885
O      13.65583      2.06575     13.92147        -0.053819     -0.326720     -1.165340
O      13.75092     13.53504      0.62634        -0.352625      0.414599      0.831645
O      13.63676     13.72620     13.85830        -0.168085      0.094154     -0.471044
O       1.99723      1.86671      5.05674        -0.001325      0.149821     -0.407434
O       1.87627     13.68524      5.26502         0.743833     -0.206178     -3.974387
O      13.65533      1.89499      5.01717        -0.116679      0.027572     -0.805627
O      13.52786     13.74194      4.99534        -0.108084     -0.356507      0.351964
O       1.88661      1.91849      9.55553         0.261610      0.067329     -2.208158
O       1.79061     13.49040      9.42819         0.213994      0.344603     -0.274972
O      13.62552      1.97990      9.37172         0.203411     -0.358641      0.165438
O      13.62054     13.60670      9.44486         0.237811      0.094203      0.272667
O       1.97211      5.89886      0.75238         0.204146      0.151689     -1.021601
O       2.00468      5.93146     13.82518        -0.079528     -0.131530     -0.829769
O      13.65803      5.80780      0.63395         0.112968     -0.347780      0.659780
O      13.55342      5.83310     13.88627        -0.228306      0.490404      0.866516
O       2.03037      5.75786      5.02964         0.042575      0.288177     -0.372187
O      13.71663      5.70487      5.28401         0.144556      0.192123     -4.089812
O       2.05384      5.70862      9.54168         0.066070      0.206211     -0.455168
O      13.76945      5.76931      9.47503         0.244731      0.198395     -0.269851
O       2.14735      9.81409      0.68784        -0.363513     -0.131540     -0.364043
O       1.76872      9.66505     13.89548         0.423195     -0.010756     -0.856044
O      13.65963      9.92744      0.69886        -0.161424     -0.165781     -0.513345
O      13.62680      9.55149     13.87777        -0.065578     -0.096243     -0.266879
O       2.02426      9.65109      5.10875        -0.064573      0.233132     -0.447012
O      13.74034      9.64754      4.99497        -0.009483     -0.084681      0.133967
O       2.20091      9.70675      9.48990        -0.581782      0.128307     -1.267979
O      13.61164      9.77589      9.38641         0.131797     -0.185250     -0.832491
O       5.64816      1.95950      0.59242         0.436883      0.419820      0.005435
O       5.75525      2.00248     13.73541         0.634214     -0.078116      0.044580
O       5.91076     13.61942      0.61203         0.002421      0.053828     -1.968153
O       5.91479     13.63220     13.90860        -0.094073      0.054006      0.309962
O       5.86757      1.64959      5.01372         0.080562      0.695678     -0.634807
O       5.78744     13.64365      5.13739        -0.111832     -0.040171     -1.432145
O       5.86428      2.09624      9.51678         0.325028     -0.338435      0.477491
O       5.88404     13.74108      9.46224         0.133246     -0.320005     -0.036529
O       5.75575      5.75961      0.76236         0.135321      0.108346     -1.035224
O       5.93905      6.01429     13.94021         0.217645     -0.359606     -1.017655
O       5.91275      5.83036      5.05646        -0.132914      0.031350     -0.428434
O       5.81341      5.65502      9.37328        -0.078580      0.515473      0.512962
O       6.00074      9.64954      0.67905        -0.236426      0.382533      0.485074
O       5.99272      9.58650     13.86134        -0.308694      0.204754     -1.819104
O       6.01048      9.77293      5.04473        -0.045334      0.007265     -1.883100
O       5.88096      9.67940      9.47393         0.014992      0.324810     -1.217422
O       9.74349      1.97765      0.63482         0.013838     -0.059887     -1.216037
O       9.64410      1.86974     13.91670         0.270052      0.638768     -0.766511
O       9.80222     13.71451      0.64125        -0.293194     -0.095495     -1.197773
O       9.63767     13.58910     13.86420         0.424301      0.105760      0.260477
O       9.72994      2.11523      5.17422        -0.038387     -0.721139     -1.329871
O       9.85062     13.48419      5.15705        -0.134108      0.379865     -0.064499
O       9.77393      1.91486      9.43446        -0.327646     -0.056430      1.073658
O       9.86326     13.69446      9.45824        -0.587862      0.009168     -1.572199
O       9.86198      5.93601      0.71123         0.010070      0.059649     -1.396908
O       9.70899      5.57682     13.85014         0.270389      0.523205     -0.358059
O       9.94892      5.89421      5.08564        -0.737379     -0.669023      0.474055
O       9.72936      5.77222      9.49904         0.222063      0.137149     -0.634784
O       9.61084      9.64967      0.65672         0.350750      0.108067      0.080708
O       9.94887      9.68668     13.85335        -0.620430      0.368644     -0.477089
O       9.66311      9.64800      5.11860         0.152456      0.273903     -0.656335
O       9.82334      9.68324      9.42853        -0.141446      0.005492     -0.630263
O       3.88382      1.88988      2.80063         0.126136      0.293579     -0.024424
O       3.88212      2.15000     15.89682         0.746678     -0.587216      0.355967
O       3.93688     13.59271      2.59469        -0.697237     -0.150113      0.735423
O       3.93248     13.74592     16.00781         0.676335     -0.987613      0.617367
O       0.11959      1.92972      2.87227        -0.890670     -0.334301     -0.338123
O       0.02456      1.92955     15.92590        -0.600001     -0.092426      0.787529
O       0.00685     13.59258      2.97239         0.036268      0.568509     -0.850756
O      15.57697     13.59937     15.98307        -0.030770      0.598777      0.085755
O       4.00900      1.70327      7.20489        -0.401862      1.154830     -0.218016
O       3.89490     13.66581      7.37856        -0.035433     -0.164182     -0.455074
O      15.58912      2.09224      7.09575        -0.117493     -0.706138      0.132579
O       0.02449     13.54338      7.08842        -1.417782      0.013640      0.972737
O       3.90103      1.90834     11.68843         0.578256      0.206526     -0.056500
O       3.86564     13.62626     11.46966         0.422303     -0.454572      0.609564
O       0.00556      1.78809     11.55791        -0.431183      0.226246      0.263368
O      15.56076     13.63769     11.68041         0.400526      0.325046     -0.111153
O       3.95502      5.87363      2.87991         0.224634      0.150627      0.524951
O       4.01124      5.85425     16.02054        -0.957204     -0.177651      0.216299
O       0.04167      5.74648      2.80884        -0.251541      0.509120      0.490922
O      15.57357      5.89418     15.94327         0.208943      0.241328      0.447847
O       3.87584      5.66873      7.18111         1.340990      0.789373      0.190722
O       0.14621      5.90681      7.31998        -0.837904     -0.574123      0.026195
O       3.86209      5.85899     11.71152         1.713280     -0.552761     -0.149484
O       0.07361      5.93303     11.70769        -0.526246     -0.517204     -0.224749
O       3.99408      9.62189      2.81605        -0.595484      0.596611      0.391179
O       3.82822      9.71457     16.00131         0.937843      0.491600     -0.244872
O       0.01363      9.79059      2.84403         0.757920     -0.052209     -0.440330
O      15.57255      9.66156     16.13168         0.348556     -0.227180     -0.350713
O       3.95483      9.62956      7.06676         0.778230      0.337919      0.745460
O       0.05052      9.71265      7.13115         0.034538     -0.040984      0.533803
O       3.84644      9.65511     11.64329         1.101847      1.110737      0.367810
O       0.00648      9.60871     11.57183        -0.335264      0.303250     -0.185631
O       7.78408      1.92670      2.81484         0.123220      0.316392     -0.219078
O       7.72676      2.01086     15.98677         0.806500     -0.087335      0.014254
O       7.84893     13.66211      2.79370        -0.035151     -0.155772      0.216456
O       7.86815     13.77792     16.04704        -0.837306     -0.487112      0.074654
O       7.79476      1.76434      7.21918        -0.428310      0.739890      0.279429
O       7.82105     13.52544      7.15509         0.427657      0.105909      0.638484
O       7.86616      1.92442     11.59820        -1.137069      0.131172      0.428718
O       7.78186     13.73412     11.52391        -0.207038     -0.161936      0.315200
O       7.85738      5.76968      2.56704        -0.616088     -0.247150      1.214181
O       7.86421      5.81624     16.11828         0.307642      0.530769     -0.089133
O       7.77380      5.79359      7.15846         0.120701     -0.094337      0.463383
O       7.81264      5.70219     11.41469        -1.005196      0.541497      0.917339
O       7.88051      9.91374      2.85664        -0.187718     -1.070124      0.367714
O       7.85681      9.62489     16.00516        -0.375595      0.499432      0.108412
O       7.82525      9.83360      7.25606        -0.072308     -0.477652      0.059657
O       7.81737      9.70526     11.67932        -0.265354      0.196013     -0.308740
O      11.73041      2.03907      2.83494         0.263411     -0.646797     -0.154357
O      11.74791      1.89617     15.98849        -1.386896      0.892793      0.318885
O      11.68460     13.60194      2.71982         0.561399      0.520912      0.204691
O      11.73340     13.74709     16.02029        -0.781426     -0.927334     -0.019179
O      11.71446      1.91893      7.24183         0.227561     -0.294708     -0.245247
O      11.73116     13.73520      7.26610        -0.134658     -0.428388     -0.094172
O      11.68199      1.95790     11.54127         0.451460      0.042802      0.472535
O      11.67182     13.54765     11.50821        -0.238690      0.346943      0.751107
O      11.73137      5.81816      2.81857         1.358080     -0.100575      0.455856
O      11.66493      5.84948     16.10174        -0.440628     -0.253133     -0.195965
O      11.74612      5.78752      7.29203        -0.267750      0.428360      0.389396
O      11.75466      5.79150     11.58774        -0.516744     -0.301620      0.344711
O      11.70586      9.65280      2.80876         0.181144      0.328665     -0.090971
O      11.65453      9.76911     16.10417         0.330941     -0.145764      0.003714
O      11.75013      9.56471      7.04364        -0.446665      0.492214      0.568664
O      11.70392      9.86050     11.59045        -0.127397     -0.968537     -0.313350
O       2.08046      3.91247      2.66966        -0.077808     -1.171409      0.605880
O       1.84166      3.87961     15.89042         0.393979      0.891161      0.484089
O       1.99501     15.51664      2.78231        -0.306533      0.358138      0.078651
O       1.92209      0.01352     16.01968         0.401027     -0.596325      0.369270
O      13.86234      3.83125      2.81735        -1.024787     -0.098072     -0.126493
O      13.64009      3.92609     16.00178        -0.120335      0.394116      0.727421
O      13.66019      0.01594      2.91799        -0.058078     -0.173792     -0.555069
O      13.51030      0.02751     16.02913         1.253545     -0.570919      0.061129
O       1.96824      3.87877      7.24558         0.228331     -0.545559     -0.082460
O       1.87570      0.03914      7.30354         0.033962     -0.337994     -0.031301
O      13.68411      3.91580      7.20681         0.107364     -1.520142      0.499764
O      13.71203      0.02262      7.16851         0.067929     -0.695057      0.052466
O       1.97827      3.83742     11.59851        -0.113615     -0.084513      0.551629
O       2.05638     15.51985     11.58983        -0.612012     -0.288048      0.145148
O      13.79666      3.85745     11.54126        -0.507223     -0.285653     -0.021791
O      13.59383     15.54819     11.47670        -0.193331      0.755326      0.535228
O       1.99932      7.77085      2.84394        -0.167718      1.537997      0.205014
O       2.03640      7.70701     16.04247        -0.461054      0.597897      0.087217
O      13.74395      7.76601      2.69064         0.023280      0.170592      0.365125
O      13.53981      7.79982     16.26623         0.264960     -0.218941     -0.699515
O       2.06980      7.73122      7.20680        -0.060186      0.323449      0.249692
O      13.72252      7.75714      7.24081         0.098702      0.283448      0.311378
O       2.08178      7.77223     11.58798        -0.950821      0.064333      0.338949
O      13.64695      7.74415     11.36836        -0.325238      0.660818      0.707023
O       2.02168     11.74357      2.80948        -0.047855     -1.059364      0.232984
O       1.88377     11.64436     16.04556         0.812712      0.296229      0.074163
O      13.64535     11.71344      2.94270         0.014748      0.187305     -0.539366
O      13.65318     11.61863     15.89419        -0.167748      0.574565      0.477359
O       2.11068     11.64057      7.27360        -0.766194     -0.303305     -0.289706
O      13.65760     11.62624      7.29129        -0.307714      0.444627     -0.874238
O       1.83264     11.68270     11.70347         0.880788     -0.032101     -0.288934
O      13.66676     11.64857     11.61895         0.017419     -0.101605     -0.028920
O       5.88333      3.86272      2.96279        -0.661120     -0.250382     -0.680212
O       5.91836      3.97743     16.00043        -0.066988     -0.851866      0.061275
O       5.78638     15.57999      2.70505         0.511042      0.595939      0.309990
O       5.81236      0.09366     15.97838         0.161552     -0.527987     -0.036047
O       5.97394      3.83865      7.10278        -0.409823     -0.575209      0.091871
O       5.95084     15.52376      7.20794         0.065456      0.452895      0.710605
O       5.78807      3.94388     11.60994         0.163650     -0.317807      0.609586
O       5.89707      0.04229     11.51490        -0.270328     -0.377179      0.538683
O       6.03860      7.76272      2.79477        -0.209135      0.583859      0.300845
O       5.88715      7.88093     16.14594        -0.094596     -0.727424     -0.074233
O       5.96808      7.75065      7.14743        -0.481727      0.472742      0.117263
O       5.87654      7.77335     11.58413        -0.071750     -0.385566     -0.129802
O       5.92246     11.72406      2.64415        -0.401910     -0.600707      0.886445
O       5.98377     11.61569     15.89214        -0.415691      1.113330      0.512849
O       5.80774     11.75074      7.17807         0.194166     -1.566887      0.417922
O       5.84165     11.69745     11.71722         0.066444      0.042688     -0.399634
O       9.86676      3.93162      2.71490        -0.526358     -1.080056      0.555148
O       9.74622      3.92673     16.16411         0.200876     -0.489612     -0.488241
O       9.76773      0.01602      2.74866         0.399384      0.441007      0.420860
O       9.79060      0.06234     16.05074        -0.436050      0.012845      0.087129
O       9.83092      3.88991      7.27822        -0.811847     -0.769928      0.064887
O       9.70689     15.57135      7.25714         0.306064     -0.763238     -0.093265
O       9.65917      3.87712     11.62918         0.642555     -0.535750      0.445711
O       9.80137     15.59059     11.68228        -0.455112     -0.150986     -0.201897
O       9.81924      7.72111      2.87864        -0.649658      1.527770      0.161120
O       9.88086      7.79143     15.81509        -0.295008     -1.312735      0.412527
O       9.72997      7.67681      7.19149        -0.259818      1.226700      0.782394
O       9.76006      7.78179     11.55656         0.243157     -0.175088      0.297045
O       9.87891     11.65723      2.75196        -0.422798      0.578469      0.129132
O       9.75168     11.68898     16.00448        -0.191321      0.252242      0.101202
O       9.85140     11.60991      7.29080        -0.195264      0.488107     -0.120973
O       9.61508     11.70253     11.52444         0.376003     -0.283893      0.326017
