  # total energy = -7879.11288640 
CRSYTAL
PRIMVEC
    15.3600000000000000    0.0000000000000000    0.0000000000000000
     0.0000000000000000   15.3600000000000000    0.0000000000000000
     0.0000000000000000    0.0000000000000000    17.440000000000000
PRESSURE
2.60214 2.37754 -5.74118 -0.263043 -0.595097 0.037041
PRIMCOORD
320 1
Pb       3.79888      3.85676      4.39130         0.287582     -0.154803      0.340302
Pb       3.98207      3.79977     17.33369        -0.745280     -0.254751      0.966864
Pb       3.81107     15.33200      4.34198        -0.198317     -0.091715      0.682702
Pb       3.91910      0.03773     17.39427        -0.702870     -0.306806      0.220040
Pb      15.31851      3.83119      4.41496         0.396688     -0.290961      0.009886
Pb       0.11219      3.84781      0.04363        -0.075033      0.188213      0.276647
Pb       0.03794     15.30020      4.31402        -0.307065      0.165424      0.671434
Pb      15.11283     15.31135     17.43864         0.702798     -0.303642      0.077854
Pb       3.76575      3.95504      8.53150        -0.062258     -0.318055      1.476127
Pb       3.82370     15.33087      8.82753        -0.003703      0.134121     -0.244896
Pb      15.05589      3.90201      8.59783         1.285004      0.180331      0.866455
Pb      15.28244      0.17323      8.66655        -0.232756     -0.777830      1.065215
Pb       3.88856      3.75879     12.93137        -0.579491      0.359564      0.776157
Pb       3.76394     15.22148     12.95466        -0.012625      0.319209      0.445430
Pb      15.32419      3.68898     13.10267         0.382327      0.486631      0.521139
Pb       0.01010      0.03481     12.90080         0.029515     -0.155026      0.979002
Pb       3.93086      7.69702      4.25025        -0.372766     -0.604248      0.626943
Pb       3.70683      7.65975      0.03430         0.136743     -0.259078      0.216075
Pb       0.19304      7.68520      4.29273        -0.533062      0.145163      0.303549
Pb      15.33629      7.80716     17.31680        -0.683450     -0.976418      1.100040
Pb       3.96596      7.60997      8.69461        -0.542228      0.216226      0.779505
Pb      15.33642      7.62812      8.66428         0.102683      0.104791      0.859216
Pb       3.82372      7.64768     13.06709        -0.379896      0.010510      0.084162
Pb       0.07023      7.69959     13.08291        -0.162204     -0.155418      0.727805
Pb       3.65201     11.47470      4.30191         0.483431      0.148801      0.256659
Pb       4.01034     11.30594     17.30039        -0.229985      0.678387      0.944036
Pb       0.16684     11.65738      4.14992        -1.043982     -0.704482      1.365240
Pb      15.28317     11.45788     17.30598        -0.402290      0.216479      1.147518
Pb       3.78360     11.60499      8.70773        -0.063705     -0.226723      0.485664
Pb      15.35732     11.35587      8.63958        -0.240101      0.530747      1.429709
Pb       3.97712     11.51084     12.96598        -0.769218     -0.287499      0.880083
Pb       0.11165     11.47411     13.13245         0.007214     -0.167016      0.062744
Pb       7.68717      3.71733      4.39213        -0.056461      0.530976      0.555519
Pb       7.71977      3.91847     17.24908        -0.437287     -0.769185      1.433857
Pb       7.67715      0.05793      4.30816         0.203622     -0.312825      1.241223
Pb       7.41167     15.34032     17.30723         0.722332     -0.246313      0.724502
Pb       7.65516      3.81679      8.67706         0.106865     -0.034687      0.245471
Pb       7.68880     15.25548      8.59071         0.003574      0.470059      0.594871
Pb       7.82073      3.97228     13.25031        -0.256087     -0.499200     -0.295113
Pb       7.71602      0.12929     13.00813        -0.637048     -0.316596      1.031056
Pb       7.53423      7.53462      4.25847         0.865711      0.184601      0.615897
Pb       7.64573      7.63499     17.42170        -0.242815      0.328967      0.762021
Pb       7.59387      7.85624      8.60668         0.183375     -0.579111      0.652597
Pb       7.62455      7.61212     12.97820         0.124157      0.396778      0.195559
Pb       7.66726     11.40184      4.34574         0.222864     -0.015258      0.543613
Pb       7.56756     11.64468     17.29079        -0.196650     -0.377125      0.964088
Pb       7.73069     11.47343      8.68054        -0.501321      0.145323      0.179318
Pb       7.88376     11.65565     13.06284        -1.197170     -0.697400      0.579824
Pb      11.59240      3.75028      4.35763        -0.408015      0.175245      0.118097
Pb      11.53341      3.82451      0.02196         0.149520      0.111669      0.443788
Pb      11.57316      0.02197      4.22645        -0.024428     -0.481282      0.900623
Pb      11.42229     15.30455     17.18549         0.193900     -0.101881      2.308015
Pb      11.58623      4.05147      8.65521        -0.637443     -0.772822      0.937190
Pb      11.48577     15.27233      8.62147         0.013895     -0.059060      0.724727
Pb      11.53535      3.70847     13.24988         0.095703      0.584963     -0.162569
Pb      11.40919     15.33452     13.01860         0.530463     -0.148035      0.556314
Pb      11.58899      7.69619      4.20150        -0.502732     -0.160697      0.665931
Pb      11.41149      7.57992     17.43515         0.876590      0.355711      0.426934
Pb      11.56210      7.67473      8.63019        -0.138368      0.137622      0.841869
Pb      11.40945      7.71529     12.98076         0.122443     -0.599595      1.163978
Pb      11.56994     11.37969      4.39168        -0.156227      0.635095      0.015047
Pb      11.37924     11.49168     17.33915         0.370843     -0.030944      0.729671
Pb      11.48824     11.51131      8.83389         0.465342      0.301885     -0.053385
Pb      11.47687     11.45787     12.93196         0.001279      0.366096      1.347877
Ti       1.96429      1.87301      2.41603        -0.181285      0.547286     -2.269632
Ti       1.93064      1.85065     15.46565        -0.415881      0.057795     -1.204566
Ti       1.89709     13.45150      2.21024         0.411834     -0.016769     -2.520740
Ti       1.88069     13.38610     15.49240        -0.094717      0.788365      0.044086
Ti      13.51030      1.89676      2.40153        -0.264411     -0.295718     -0.857055
Ti      13.46454      1.87886     15.50046         0.389381      0.118096     -1.125015
Ti      13.40413     13.40207      2.37387        -0.900356      0.028244     -2.093304
Ti      13.35681     13.34246     15.40523         0.196096      0.176988     -1.687780
Ti       1.90204      1.92539      6.82983         0.055934      0.407730     -1.400797
Ti       1.79253     13.46725      6.88456         0.400595     -0.313637     -1.706867
Ti      13.34168      1.91220      6.72489         0.985142     -0.541149     -2.159769
Ti      13.39128     13.38324      6.80162        -0.026579      0.592191     -1.694447
Ti       1.96698      1.94786     11.01367        -0.871808     -0.025929     -2.048380
Ti       1.84062     13.37099     11.07163         0.285842     -0.564041     -1.980674
Ti      13.39670      1.89331     11.09421        -0.270419     -0.290141     -0.729380
Ti      13.40489     13.38921     11.18678        -0.278221      0.254197     -2.355775
Ti       1.90266      5.64534      2.42327         0.203231      0.694247     -2.257584
Ti       1.86764      5.69897     15.46617        -0.624637      0.028761     -1.360242
Ti      13.44656      5.72979      2.41746         0.123290     -0.014740     -2.428801
Ti      13.42188      5.66764     15.51547         0.330796      1.632650     -1.552378
Ti       1.87520      5.80670      6.74560        -0.322403     -0.674696     -1.676468
Ti      13.37099      5.83747      6.58138         0.227193     -0.097623     -1.491262
Ti       1.85948      5.74162     11.14579        -0.355192      0.256145     -2.369971
Ti      13.41308      5.68881     11.31272        -0.414694      0.233003     -0.672664
Ti       1.90499      9.55408      2.30133        -0.372180     -0.392462     -1.855167
Ti       1.84445      9.59726     15.49320         0.214432     -0.617251     -2.348739
Ti      13.42045      9.58256      2.39227         0.978112     -0.038714     -2.090491
Ti      13.30163      9.56316     15.41483         0.031389     -1.101203     -1.265999
Ti       1.92929      9.56384      6.74296        -0.377768      0.436149     -1.869074
Ti      13.43258      9.63457      6.71552        -0.101872     -0.459232     -2.136578
Ti       1.90255      9.56621     11.10228        -0.851736     -0.012104     -1.353306
Ti      13.38863      9.55188     11.21628         0.973172     -0.403141     -2.041115
Ti       5.78536      1.83301      2.46370        -0.353989      1.559103     -2.331254
Ti       5.76635      1.87894     15.32119        -0.544210     -0.088778     -0.022909
Ti       5.72419     13.36272      2.48068        -0.186472     -0.496276     -2.142804
Ti       5.62901     13.36484     15.27858         1.154157     -0.256482     -1.293645
Ti       5.73008      1.92845      6.82358         0.322729     -0.272166     -2.199091
Ti       5.66675     13.43264      6.73758         0.047838     -0.034368     -1.956867
Ti       5.77580      1.89598     11.04577         0.165836     -0.006015     -1.076445
Ti       5.77440     13.43741     11.09333        -1.191317     -0.584430     -1.116903
Ti       5.72578      5.62890      2.34015        -0.479089      0.125641     -1.805411
Ti       5.65367      5.74325     15.48248        -0.402437     -0.020255     -1.420379
Ti       5.76618      5.76794      6.73397         0.457143     -0.025789     -1.780707
Ti       5.73928      5.71153     11.10442        -0.419206     -0.014015     -2.408427
Ti       5.74989      9.57506      2.41366         0.444465     -0.331448     -2.546052
Ti       5.72011      9.44674     15.36232        -0.534544      1.021489     -1.475487
Ti       5.66580      9.63110      6.68460         0.525461     -0.275688     -1.957139
Ti       5.70237      9.58123     11.13490         0.517048      0.111326     -1.139020
Ti       9.62470      1.88013      2.37639         0.499429     -0.317587     -2.347440
Ti       9.58613      1.84246     15.51489        -0.562570      0.212133     -1.264964
Ti       9.53057     13.37343      2.43287         0.834230     -0.122513     -1.664551
Ti       9.51601     13.40247     15.40986        -0.388087      0.286390     -1.001897
Ti       9.62897      1.94967      6.76500        -0.872303     -0.142847     -1.291135
Ti       9.53534     13.39749      6.69655         0.495197     -0.020329     -1.133335
Ti       9.56460      1.93040     11.09502        -0.252447      0.326316     -2.076213
Ti       9.51296     13.46859     11.10408         0.754038      0.083573     -2.207422
Ti       9.61343      5.65950      2.41463        -0.849381      0.927363     -1.106488
Ti       9.57730      5.75725     15.48470         0.771312     -0.224511     -1.274247
Ti       9.57825      5.75600      6.73351        -1.134446     -0.297032     -2.633757
Ti       9.59894      5.64642     11.12188         1.115849      0.490543     -0.737109
Ti       9.62118      9.54840      2.33402        -1.268360     -0.569474     -0.970297
Ti       9.42772      9.56389     15.42524         1.057569      0.240878     -1.306308
Ti       9.64168      9.61161      6.77127        -0.575207     -0.483291     -1.997607
Ti       9.51761      9.52441     11.06605        -0.464186     -0.294363     -0.952291
O       1.97442      1.98004      0.56055        -0.058233     -0.362580      2.055055
O       1.82347      1.83964     13.61517         0.447844     -0.032115      0.921317
O       1.94930     13.42139      0.38546        -0.225569      0.143788      1.684705
O       1.82332     13.38772     13.69749        -0.011063      0.175078      0.471877
O      13.44102      1.80986      0.60989         0.228549      0.181202     -0.025204
O      13.43616      1.94288     13.68479         0.047240     -0.186576      1.241126
O      13.34769     13.42043      0.51257         0.079799      0.123808      1.522153
O      13.36194     13.36330     13.57045         0.010778     -0.054360      1.175689
O       1.95907      1.89716      4.98316        -0.189292     -0.013269      1.205497
O       1.86944     13.38273      4.98232        -0.179925     -0.006596      1.307419
O      13.46267      1.88582      4.88065        -0.299048      0.299196      1.494816
O      13.49193     13.41711      4.96162        -0.175271     -0.139155      1.256200
O       1.79761      1.92762      9.13291         0.540499     -0.052359      1.917958
O       1.90018     13.24313      9.22180         0.052773      0.529146      1.062959
O      13.31686      1.87262      9.29965         0.193477      0.263042      0.589862
O      13.25911     13.35449      9.27193        -0.012101      0.128175      1.711030
O       1.87104      5.67179      0.53654         0.300814     -0.008663      1.738864
O       1.81790      5.70433     13.62264         0.505764      0.182164      1.149904
O      13.38558      5.68531      0.53540         0.043742     -0.040650      2.100343
O      13.33465      5.58372     13.66081         0.177318      0.204749      1.017068
O       1.88728      5.74593      4.88837        -0.186890      0.130831      1.437633
O      13.27437      5.81426      4.77069         0.404276     -0.220380      0.782367
O       1.77356      5.79143      9.23957         0.082256     -0.025433      1.442757
O      13.35071      5.64107      9.47824         0.011083      0.201066      0.445379
O       1.92843      9.49437      0.40199         0.097106      0.358882      1.705919
O       1.76584      9.52954     13.58569         0.403084      0.264168      2.037690
O      13.55388      9.56209      0.57085        -0.641451      0.253560      1.431441
O      13.22408      9.53119     13.55837         0.406900      0.312411      0.789309
O       1.78806      9.70507      4.80722         0.704459     -0.360950      1.902339
O      13.28963      9.64044      4.80594         0.370911     -0.246552      1.760025
O       1.82251      9.54314      9.28393         0.040035      0.073613      0.052020
O      13.43398      9.47274      9.30567        -0.261533      0.337509      1.986630
O       5.80367      1.85132      0.50809        -0.220677     -0.268764      2.093266
O       5.72736      1.84237     13.56523        -0.048910      0.230216      0.130423
O       5.85583     13.28213      0.54373        -0.448093      0.425317      1.897473
O       5.72018     13.29537     13.45669        -0.323535      0.397311      0.860165
O       5.82522      1.95783      4.93564        -0.428309     -0.324919      1.156629
O       5.70625     13.41101      4.88727        -0.524087      0.086014      1.326060
O       5.65180      1.94125      9.24752         0.651193     -0.230667      0.597729
O       5.64305     13.38048      9.25846         0.191516      0.020964      0.676107
O       5.55714      5.61628      0.41385         0.923297      0.193493      1.795160
O       5.56399      5.72831     13.62398         0.416349      0.163008      0.635213
O       5.74885      5.79386      4.88011        -0.142198     -0.106869      1.481118
O       5.64533      5.79062      9.18317         0.391900     -0.140755      1.986763
O       5.75551      9.59348      0.42541        -0.288558      0.054407      2.150093
O       5.59658      9.50510     13.47213         0.472720     -0.455963      1.543903
O       5.57911      9.49236      4.80290         0.439117      0.379757      1.445010
O       5.70320      9.54254      9.28131        -0.060133      0.031902      0.895385
O       9.59442      1.77102      0.51433        -0.147513      0.527254      1.680697
O       9.45144      1.84884     13.67445         0.334651      0.122708      1.015974
O       9.52939     13.35450      0.57751        -0.233568      0.077770      1.601573
O       9.51147     13.42966     13.59367         0.055824      0.004502      0.148871
O       9.48936      1.90305      4.93058         0.543054      0.320731      0.932977
O       9.55324     13.20258      4.93107        -0.192550      0.553377      0.200609
O       9.45079      1.88766      9.26127         0.382412      0.173836      1.047569
O       9.50943     13.51618      9.23122        -0.001520     -0.303816      1.734422
O       9.53337      5.69069      0.53494         0.012825      0.019564      0.877486
O       9.63867      5.66529     13.65469        -0.745882      0.220741      1.589657
O       9.41271      5.55923      4.87692         0.757644      0.698454      1.288282
O       9.77898      5.65025      9.34854        -0.447510      0.018749      0.020595
O       9.60970      9.39405      0.53244        -0.415108      0.652047      0.661724
O       9.50647      9.57370     13.58850        -0.201391     -0.048105      1.467790
O       9.53289      9.61572      4.94543         0.649850      0.096277      1.444971
O       9.53398      9.45415      9.24991         0.080947      0.552823      0.369953
O       3.87068      1.93083      2.79343        -0.325542     -0.544540      0.014044
O       3.82776      1.77391     15.83413         0.675653      1.121925     -0.540587
O       3.80600     13.41081      2.66913        -0.402997      0.167762      0.308253
O       3.83899     13.37814     15.68932        -1.292429     -0.451201      0.152682
O       0.04049      1.96466      2.84505         0.251587      0.059312     -0.244959
O       0.02399      1.92536     15.90784        -1.209508     -0.573917     -0.307603
O      15.35142     13.50223      2.61637        -0.017084     -0.420628      0.099300
O      15.20850     13.39778     15.87476         0.760354      0.267156     -0.480060
O       3.84222      1.96261      7.14619        -1.206991     -0.276077     -0.155342
O       3.72604     13.53078      7.16182         0.287735     -0.670085     -0.015464
O      15.21436      1.88996      7.15263         0.568005      0.610213     -0.436668
O      15.26480     13.45508      7.24825         0.333172     -0.402900     -0.378831
O       3.83602      1.81240     11.33364        -0.380023      0.180009      0.417148
O       3.74593     13.31502     11.43855         0.816892      0.384141     -0.052041
O      15.33166      1.95922     11.39751         0.053003     -0.859155     -0.074249
O      15.32189     13.46464     11.45099        -0.230622     -0.415028     -0.002999
O       3.79252      5.75520      2.77200         0.498404     -0.022609     -0.074410
O       3.76133      5.71829     15.87557         0.188121      0.289539     -0.487075
O       0.01841      5.68162      2.81249        -0.858974     -0.150066     -0.035620
O      15.34140      5.76908     15.89536         0.062437     -0.079409     -0.339031
O       3.77570      5.78920      7.04522         0.118037      0.204950     -0.103125
O      15.23242      5.70903      7.07438         0.371177      0.354270     -0.324461
O       3.73154      5.71566     11.37188         1.295932      0.138760      0.403182
O      15.32451      5.72329     11.60938        -0.466152     -0.068065     -0.442163
O       3.81767      9.50263      2.70757        -0.669295      0.398546     -0.335302
O       3.86035      9.57936     15.76966        -0.866744     -0.186517     -0.301685
O       0.04633      9.56093      2.69139        -0.646107      0.143946      0.021095
O      15.25039      9.58675     15.83637         0.336966      0.082935     -0.652986
O       3.81576      9.39756      7.06971        -0.937420      0.810136     -0.192553
O      15.29551      9.63993      7.10816         0.199332     -0.556354     -0.479222
O       3.70691      9.58689     11.45464         2.247098     -0.279792      0.009264
O       0.04693      9.54064     11.58008        -2.628607      0.358886     -0.371530
O       7.71991      1.92464      2.78786        -0.291886     -0.180286     -0.390537
O       7.64537      1.80782     15.79809        -0.507396      0.334741     -0.275876
O       7.53667     13.36477      2.84340         1.739803      0.190494     -0.211742
O       7.58588     13.42200     15.63551         0.300958     -0.019099      0.435029
O       7.62430      1.99732      7.05943         0.399684     -0.207615      0.502690
O       7.60887     13.37984      7.07405        -0.443227     -0.086055      0.207806
O       7.65000      1.93542     11.46732        -0.590637     -0.083739      0.010478
O       7.58402     13.40003     11.43617         1.448632      0.104114     -0.155167
O       7.55104      5.67841      2.72838         1.275913     -0.257445     -0.325422
O       7.58538      5.73474     15.79959         1.105651      0.360561     -0.352257
O       7.66989      5.70452      7.06717        -0.587199      0.008662      0.373500
O       7.75789      5.69204     11.44679        -2.651518     -0.088497      0.350869
O       7.60396      9.58421      2.71447         0.621531     -0.064457      0.023715
O       7.55129      9.59099     15.73944         1.614341     -0.672331     -0.060622
O       7.60716      9.67348      7.02185         0.111189     -0.159070      0.410006
O       7.63682      9.46657     11.35101        -0.376815      0.367075      0.381158
O      11.59774      1.86590      2.71686        -1.389544     -0.078509      0.299997
O      11.47673      1.90187     15.84986         0.509196      0.359829     -0.463979
O      11.50131     13.48379      2.77287        -0.376528     -0.112127     -0.086166
O      11.39145     13.43437     15.80859         0.509011     -0.754128     -0.394706
O      11.53514      1.92300      7.04271        -1.130759     -0.175415      0.122934
O      11.42242     13.41877      7.08252         0.414755     -0.114713      0.199846
O      11.43445      1.87592     11.52357         0.511123     -0.019397     -0.114990
O      11.47891     13.44229     11.49737        -1.202768      0.178376     -0.226459
O      11.45763      5.73203      2.69782         0.592934      0.196524      0.102053
O      11.51718      5.71593     15.89822        -1.334880     -0.205895     -0.180719
O      11.45146      5.76212      7.04852         0.780763      0.649200      0.033696
O      11.40919      5.66885     11.64410         1.171797     -0.136252     -0.235018
O      11.47972      9.58543      2.63619         0.497994     -0.405467      0.333956
O      11.51248      9.59149     15.93333        -1.413505     -0.166875     -0.485072
O      11.54936      9.61612      7.16109        -0.938301     -0.449891     -0.171616
O      11.37323      9.61220     11.49573         0.952410     -0.275812     -0.631941
O       1.97990      3.81572      2.85391        -0.406479     -0.590973     -0.086879
O       1.82734      3.81291     15.84339         0.582783     -0.085328     -0.393896
O       1.82918     15.32595      2.72999         0.794024      0.214379     -0.106896
O       1.94317      0.00198     15.89820        -0.406996     -0.927562     -0.369661
O      13.36561      3.79259      2.73191         0.360998      0.571458      0.328246
O      13.47706      3.86649     15.89002        -0.441809     -2.021948      0.067158
O      13.51508      0.00704      2.83206        -0.135493     -0.575912     -0.299288
O      13.29911     15.28938     15.72574         0.667880      0.848492      0.136709
O       1.82169      3.87542      7.11510        -0.007597     -0.280001     -0.367330
O       1.80226      0.00018      7.18294         0.197159      0.207813     -0.183317
O      13.29511      3.97204      6.98314         0.334815     -1.528905      0.055846
O      13.35035     15.31974      7.16098         0.053115      0.503989     -0.308831
O       1.89460      3.79620     11.43911         0.180713     -0.414812     -0.038481
O       1.95857     15.28368     11.36357        -0.438939      0.693565      0.092831
O      13.43614      3.75398     11.63809        -0.611726     -0.043659     -0.629521
O      13.35874     15.29832     11.55588         0.145679      0.971214     -0.363441
O       1.86334      7.63311      2.69860         0.315654      0.388045     -0.081753
O       1.83098      7.73877     15.80199         0.611713     -1.147755     -0.155175
O      13.45830      7.64074      2.68814        -0.232660      0.162154      0.221392
O      13.36147      7.64802     15.85253         0.105750      0.157894     -0.230166
O       1.76518      7.69801      7.03990        -0.048924     -0.252731     -0.059746
O      13.43501      7.66275      7.05654        -0.389744      0.418001     -0.024030
O       1.83905      7.67505     11.45850         0.208386     -1.069537      0.224782
O      13.29456      7.64013     11.53144         0.282527      0.195546     -0.166772
O       1.80835     11.52129      2.55157         0.972847     -0.000313      0.123021
O       1.71874     11.44778     15.80387         0.877636      0.992804     -0.348230
O      13.31842     11.52446      2.69758         0.628283     -0.126993      0.042003
O      13.35815     11.44640     15.75765        -0.109351      0.789030      0.153389
O       1.84855     11.44600      7.16880         0.546760      0.194144     -0.474169
O      13.31687     11.45364      7.15625         0.201984      0.678488     -0.077636
O       1.85460     11.47870     11.48422        -0.275436      0.554447      0.049516
O      13.29146     11.48815     11.47011         0.606289     -0.581963     -0.184341
O       5.68414      3.80197      2.78370         0.081994     -0.447493     -0.180415
O       5.79965      3.83436     15.68490        -0.411976     -1.077182     -0.028729
O       5.71822      0.02323      2.88199         0.189385     -0.899832     -0.690249
O       5.60777     15.25649     15.69949         0.775250      0.744038      0.071644
O       5.71017      3.85682      7.11668        -0.076997      0.354394     -0.117168
O       5.62328     15.32674      7.12447         0.531082      0.239092     -0.016777
O       5.64285      3.79619     11.40370         0.489403      0.488346      0.016912
O       5.75216     15.29244     11.43802        -0.334917      0.501316     -0.235301
O       5.81715      7.59077      2.66508        -0.850389      0.416041     -0.098694
O       5.72164      7.62778     15.89355        -0.113949      0.025333     -0.603068
O       5.74042      7.70163      7.06640         0.216611     -0.505800      0.024993
O       5.73790      7.58885     11.44235        -0.315099     -0.013716      0.087365
O       5.70758     11.41772      2.80933        -0.425936      1.037739     -0.236277
O       5.78917     11.45535     15.72155        -0.495939      0.088246     -0.222105
O       5.60030     11.48431      7.01401        -0.116876      0.372279      0.211367
O       5.79366     11.44726     11.50046        -0.261291     -0.045148     -0.605868
O       9.70206      3.80054      2.71094        -0.497664     -0.798279     -0.033211
O       9.57672      3.80791     15.76319        -0.287821      0.141661      0.103457
O       9.57744     15.30866      2.85377        -0.323668      0.078825     -0.429735
O       9.53189     15.30263     15.79867        -0.046068      0.138082     -0.251545
O       9.64191      3.84002      7.11778        -0.279604     -0.248389      0.228141
O       9.47981     15.35581      7.05978         0.314972      0.043234     -0.140513
O       9.50664      3.77018     11.61169         0.325109     -0.060186     -0.259385
O       9.44987      0.00438     11.50394         0.624054     -0.362974     -0.310729
O       9.52969      7.62651      2.77348         0.068129     -0.058806     -0.135635
O       9.59650      7.67875     15.85860        -0.487686     -0.461659     -0.485879
O       9.49066      7.64243      7.12403         0.547234      0.609703     -0.185606
O       9.48101      7.64768     11.50571         0.631740     -0.133234     -0.255013
O       9.61593     11.42720      2.73751        -0.420015      0.902931     -0.062285
O       9.51119     11.48669     15.72716         0.130060     -0.346502      0.111237
O       9.55624     11.49973      7.14992         0.134301     -0.335589      0.366926
O       9.51253     11.55613     11.38911         0.056246     -0.368086     -0.247957
