  # total energy = -7880.06987363 
CRSYTAL
PRIMVEC
    15.6000000000000000    0.0000000000000000    0.0000000000000000
     0.0000000000000000   15.6000000000000000    0.0000000000000000
     0.0000000000000000    0.0000000000000000    17.640000000000000
PRESSURE
-3.14747 -3.20003 -0.800976 0.049166 -0.41534 -0.025812
PRIMCOORD
320 1
Pb       3.90525      3.91954      4.26766        -0.447049     -0.082356      0.261092
Pb       3.77599      3.72751     17.54850         0.524993     -0.109000      0.501308
Pb       4.07754      0.09676      4.37478        -0.707420     -0.095629      0.002527
Pb       3.99262     15.50593     17.48521         0.010247      0.115350     -0.240007
Pb       0.01056      3.88911      4.29952        -0.214494     -0.540972      0.286517
Pb      15.50253      3.80099     17.58494         0.218957      0.033260     -0.219790
Pb      15.59243     15.57391      4.30651         0.153922      0.240552      0.471333
Pb       0.19613     15.50304     17.55181        -0.053298      0.100541      0.457775
Pb       3.94078      3.81001      8.70940        -0.315475      0.157991      0.302791
Pb       3.86221     15.57481      8.74230        -0.071202     -0.161028      0.370465
Pb       0.03328      3.78423      8.65120        -0.225973      0.244497      0.604556
Pb       0.05868     15.54356      8.95857         0.162380      0.275215     -0.461543
Pb       3.70366      4.10220     13.06549         0.693726     -0.190372      0.626701
Pb       3.83908      0.03508     13.18755         0.455791     -0.874764     -0.029615
Pb      15.50085      3.82365     13.21392         0.008393     -0.004019      0.037240
Pb       0.01825      0.00777     13.12050        -0.137343     -0.395337      0.322569
Pb       3.81748      7.79039      4.16147         0.236887     -0.179787      1.009219
Pb       3.72378      7.80017     17.55252         0.552213     -0.092582      0.321703
Pb      15.48605      7.72175      4.42783        -0.175275      0.100844      0.351533
Pb      15.43309      7.76650      0.02598         0.709861      0.138340     -0.254712
Pb       3.84025      7.76300      8.74093         0.145532      0.204716     -0.167429
Pb       0.07724      7.76305      8.64803        -0.394488      0.101455      0.304588
Pb       3.86590      7.87489     13.17025         0.312355     -0.298101     -0.070430
Pb      15.36025      7.83323     13.17961         0.647872     -0.034859      0.195991
Pb       3.88942     11.64976      4.28998         0.189015     -0.098209     -0.292312
Pb       3.93013     11.63415     17.54810        -0.426840      0.514313      0.376303
Pb      15.56863     11.59123      4.39187         0.526049      0.565749      0.836371
Pb      15.58081     11.56222      0.12662         0.586793      0.276714     -0.057465
Pb       3.90534     11.70516      8.62011        -0.134851     -0.394110      0.916775
Pb       0.03660     11.57427      8.78229        -0.617307      0.210103      0.434862
Pb       3.91632     11.60265     13.23279         0.242364      0.542262     -0.097808
Pb       0.12863     11.59520     13.22692        -0.362088      0.577014     -0.133527
Pb       7.83034      4.07047      4.28427        -0.406272     -0.813987      0.380789
Pb       7.82377      3.79691     17.46723         0.316146      0.005434      0.751027
Pb       8.00122     15.59522      4.32122        -0.540501      0.926676      0.037689
Pb       7.89871     15.39809     17.61940        -0.526198      0.735829     -0.448134
Pb       8.02955      3.90012      8.65651        -0.874943     -0.182799      0.906836
Pb       7.75987     15.50659      8.64094        -0.678209      0.463378      0.937326
Pb       7.63223      3.84246     13.00632         0.089952      0.025186      0.844633
Pb       7.69476     15.45227     13.19097        -0.035722      0.158620      0.033297
Pb       7.66084      7.86399      4.30613         0.059488     -0.092434      0.464892
Pb       7.82580      7.79436     17.50032        -0.453451     -0.161233      0.324802
Pb       7.87735      7.78983      8.74998        -0.142438      0.396336      0.324373
Pb       7.83755      7.67621     13.13117        -0.665035      0.122159      0.116186
Pb       7.75150     11.73589      4.32719        -1.032956     -0.294112      0.373934
Pb       7.76081     11.75923      0.01142        -0.343231     -0.417218     -0.592123
Pb       7.73142     11.64848      8.83536         0.278333     -0.407334      0.089618
Pb       7.79892     11.51410     13.21193         0.050002      0.225985     -0.099806
Pb      11.55448      3.98050      4.33363         0.537356     -0.364833      0.182191
Pb      11.69053      3.99557     17.48135        -0.568078     -0.649938     -0.036188
Pb      11.78764      0.04259      4.35269        -0.276331      0.032544      0.467312
Pb      11.76894      0.02047     17.51059        -0.109499      0.252142      0.303590
Pb      11.72142      3.91371      8.75760         0.096083     -0.527715      0.332229
Pb      11.60494     15.51493      8.81096        -0.119431      0.446581      0.068412
Pb      11.56921      3.90909     13.17790         0.012545     -0.515019      0.935732
Pb      11.74589     15.57803     13.20111        -0.431950      0.350422      0.091789
Pb      11.64588      7.84389      4.33298         0.119347     -0.194288      0.418676
Pb      11.78339      7.89233     17.59261        -0.714350     -0.069585      0.114137
Pb      11.80855      7.74599      8.76627        -0.221732      0.306688      0.399988
Pb      11.67353      7.86403     13.18891        -0.226442     -0.521474      0.392659
Pb      11.75607     11.85830      4.50633        -0.048837      0.034082      0.503581
Pb      11.61924     11.82135      0.05587         0.365930     -0.440719      0.027377
Pb      11.60229     11.74401      8.71679        -0.130870     -0.463990      0.992930
Pb      11.83246     11.70775     13.17399        -0.696705     -0.197903      0.470319
Ti       1.94779      1.88796      2.34971         0.116533     -0.212503      0.244008
Ti       1.95398      1.92624     15.48890         0.261865     -0.847380      3.316255
Ti       1.92592     13.60498      2.51190         0.116797      0.384639     -1.100316
Ti       1.92983     13.58683     15.62185         0.896230     -0.413871     -1.327381
Ti      13.55644      2.00212      2.33701         0.795324     -0.416353      0.819797
Ti      13.67160      1.88382     15.65708        -0.375725      0.588343     -0.395955
Ti      13.64635     13.67089      2.45112         0.148407      0.058197     -0.621801
Ti      13.71853     13.57098     15.72402         0.274212      0.817728     -1.483680
Ti       1.91452      1.93790      6.72722        -0.930228     -0.056905      0.843516
Ti       1.77455     13.59119      6.92671         0.294907      1.041780     -1.276722
Ti      13.57072      1.85944      6.78996         0.170505      0.964806      1.146058
Ti      13.54786     13.67972      7.00249         0.070006     -0.264983     -0.398994
Ti       1.97473      1.92116     11.27788        -0.501889      0.012851     -1.392918
Ti       1.92183     13.55219     11.25898         0.569398      0.315913     -0.606803
Ti      13.58981      1.96850     11.27977        -0.244748      0.043787     -1.515601
Ti      13.64824     13.68263     11.23306         0.086984     -0.733768      0.308867
Ti       1.78076      5.88045      2.38412         1.262180     -1.389078      0.091201
Ti       1.89472      5.74038     15.70485        -0.293203      1.238538     -0.002933
Ti      13.59956      5.83410      2.39318        -0.403506     -0.047834      1.231867
Ti      13.58631      5.89608     15.61166         0.165772     -0.738866     -0.092588
Ti       2.00815      5.82790      6.82351        -0.636085     -0.351000      0.508605
Ti      13.63474      5.84625      6.90856         0.644380     -0.944202     -2.336892
Ti       1.81362      5.89774     11.16484         1.004550      0.139110      0.215149
Ti      13.65518      5.79096     11.30558        -1.363444      0.335486     -1.148202
Ti       1.82144      9.68525      2.46003         0.311352      1.029430     -0.216024
Ti       1.86316      9.67652     15.61830         0.011196      1.048088      0.824531
Ti      13.49210      9.82170      2.57180         0.934126     -0.555925      0.837141
Ti      13.62361      9.82626     15.64133        -0.220280     -0.178195      0.344896
Ti       1.89989      9.73991      6.77745         0.717061     -0.396080      0.368178
Ti      13.54410      9.80045      6.77175         0.886857     -0.060026      1.683569
Ti       1.83273      9.72853     11.15653         1.327067     -0.524822     -0.745990
Ti      13.58725      9.76487     11.15776        -0.154012     -0.033002     -1.379631
Ti       5.90057      1.95482      2.34332        -0.329286     -0.251251     -0.168755
Ti       5.85537      1.95224     15.48344         0.260904     -1.078951      0.369887
Ti       5.81291     13.70568      2.35993        -1.122476     -0.778646     -0.016422
Ti       5.84144     13.57957     15.56423        -0.076243      0.491898     -0.117098
Ti       5.75619      1.93365      6.78776         1.143167     -0.646461     -0.477658
Ti       5.74563     13.58866      6.74764         0.043503      0.303313      0.740164
Ti       5.75899      1.92922     11.18321         0.620143     -0.756105     -0.709047
Ti       5.84835     13.59983     11.24626        -0.456934     -0.095776     -0.545078
Ti       5.79109      5.81350      2.29660        -0.305011     -0.049034      0.129852
Ti       5.73737      5.72708     15.74212         0.770213      1.195764     -0.328963
Ti       5.82375      5.72098      6.78654        -0.404354      1.251763      0.630206
Ti       5.79691      5.76577     11.08758         0.147892      0.789915      0.887442
Ti       5.84097      9.69198      2.31182        -1.615909      1.097258      0.595208
Ti       5.80367      9.68617     15.70183         0.432387     -0.215086     -0.098177
Ti       5.83366      9.62875      6.79774        -0.213781      0.535536     -0.314836
Ti       5.85483      9.67431     11.25433        -0.169664      0.434114     -0.578904
Ti       9.77028      2.03752      2.35231        -0.053842     -0.382156     -1.373714
Ti       9.66727      1.85006     15.61898         0.613535      0.986020     -0.860111
Ti       9.69283     13.62406      2.46836         1.068213      1.576429     -1.629843
Ti       9.78622     13.52690     15.72255        -0.551846      0.843327     -0.701511
Ti       9.69738      1.95793      6.76617        -0.057651     -0.006851     -1.231792
Ti       9.58078     13.61981      6.82087         1.421515     -0.469031      2.163493
Ti       9.64000      1.92707     11.29912         0.322751     -0.410973     -0.381356
Ti       9.79252     13.62747     11.34197        -1.441964     -0.964489     -1.820159
Ti       9.73397      5.97707      2.38836        -0.522137     -0.432013     -0.955421
Ti       9.66528      5.87153     15.64571         0.690751     -0.942390     -0.231349
Ti       9.75768      5.92737      6.76186        -0.187744     -0.618844      1.148596
Ti       9.74785      5.76415     11.32159        -0.136030      1.101313     -0.590170
Ti       9.62656      9.87559      2.48127         0.242052     -1.488098     -0.529898
Ti       9.73425      9.73485     15.68123        -0.051034      0.425187      0.521254
Ti       9.76448      9.72615      6.74879        -0.943084      0.488149      0.817601
Ti       9.81020      9.66993     11.22189        -2.412086      0.830825     -1.888066
O       2.03498      1.74785      0.60099         0.009910      0.366228     -0.353413
O       1.99843      1.95087     13.82545        -0.333047      0.206562     -3.009224
O       1.79665     13.62529      0.73837         0.191702      0.060649      0.179883
O       1.92812     13.56659     13.84862        -0.369220     -0.113006     -0.287637
O      13.63410      1.96521      0.62761        -0.054073     -0.062643     -1.675602
O      13.72126      1.99587     13.91564        -0.011924     -0.584914     -0.474955
O      13.68437     13.63629      0.68754        -0.079586     -0.177548      0.293975
O      13.67394     13.55856     13.90685        -0.123744      0.026801      1.082204
O       1.82161      2.05655      5.01295         0.286346     -0.358712     -0.512647
O       1.74736     13.68577      5.16795         0.287940     -0.430952      0.509416
O      13.48698      1.88075      5.07300         0.167154      0.239379     -0.706021
O      13.43019     13.76444      5.29191         0.210235     -0.346747     -1.363262
O       1.94328      1.81761      9.51606        -0.001428      0.140814      0.522628
O       1.75621     13.63627      9.48259         0.455221      0.198781      0.295712
O      13.57707      2.04392      9.53224         0.019814     -0.349827      0.206665
O      13.52742     13.60615      9.51449         0.119015      0.373508     -0.705007
O       1.71440      5.84024      0.68012         0.152926      0.278279     -1.184105
O       1.93602      5.86303     13.99420        -0.066949     -0.376677     -1.071926
O      13.49738      6.07655      0.69709         0.370327     -0.333700     -1.360488
O      13.59194      5.94033     13.88030         0.257175      0.027573     -0.437450
O       1.95701      5.74668      5.13475        -0.406701      0.136264     -2.453671
O      13.66391      5.76028      5.08893        -0.129792      0.101664      0.867368
O       1.98002      5.89346      9.45444        -0.246404     -0.090846     -0.601050
O      13.56962      5.85973      9.52971         0.020129     -0.113422      0.618262
O       1.76454      9.83255      0.73305         0.079916     -0.438557     -0.285316
O       1.78501      9.73581     13.86453         0.064682     -0.175331     -0.288695
O      13.56391      9.81119      0.85683        -0.069838     -0.000010     -0.793004
O      13.52058      9.74388     13.89310         0.636888      0.244474      0.082034
O       1.92055      9.66833      5.06274        -0.250468      0.195857     -1.362175
O      13.62276      9.73122      5.06008        -0.249881     -0.224867     -1.251103
O       2.02087      9.66036      9.38052        -0.492287      0.244468      0.925912
O      13.49517      9.76541      9.35995         0.354651     -0.254360      1.418186
O       5.88582      1.91967      0.60203        -0.475059      0.001400      0.170958
O       5.90730      1.99136     13.73467        -0.028516     -0.043796      0.180808
O       5.79481     13.76011      0.61978         0.319516     -0.024953     -0.770886
O       5.79342     13.53459     13.83952         0.366770      0.167010     -0.912368
O       5.75917      1.79799      5.03645         0.127965      0.516735      0.040682
O       5.75549     13.59373      5.02048         0.066623     -0.144597     -0.613846
O       5.77087      1.92481      9.42868        -0.270158     -0.176579     -0.437793
O       5.78436     13.67340      9.46233         0.054137     -0.325910      0.619697
O       5.82129      5.87701      0.56740        -0.133476     -0.309141      0.006671
O       5.75246      5.86039     14.02740         0.228537     -0.335470     -0.798658
O       5.74044      5.77230      5.08131         0.441528     -0.056377     -1.228172
O       5.79666      5.68851      9.38449        -0.393871      0.482039     -0.929397
O       5.73499      9.74696      0.60592         0.498590     -0.161861     -1.175070
O       5.71442      9.65543     13.96630        -0.087442      0.010335     -0.179320
O       5.95856      9.83289      5.05198        -0.124185     -0.349295      0.012448
O       5.86656      9.69164      9.46970        -0.068009     -0.038532      0.229643
O       9.78954      2.07894      0.55871         0.126216     -0.466562      0.988397
O       9.60807      1.93521     13.85367        -0.029296     -0.126570      0.012686
O       9.77584     13.75099      0.66316        -0.204287     -0.662731      0.884041
O       9.72461     13.46851     14.00658         0.303145      0.171970     -0.993001
O       9.64082      1.94399      4.95971         0.249602      0.113021      0.903554
O       9.76135     13.44062      5.15951        -0.300214      0.524316     -2.700473
O       9.71627      2.01716      9.55933        -0.170775     -0.421207     -0.207008
O       9.77104     13.60145      9.54225         0.031803      0.365897      0.883708
O       9.81782      5.87276      0.65795        -0.128690      0.303876      0.174922
O       9.62699      5.79762     13.92056        -0.046423      0.133933     -1.059972
O       9.70279      5.82859      5.06314         0.025142      0.130119     -1.839728
O       9.80982      5.88352      9.59852         0.089130     -0.160319     -0.931387
O       9.68773      9.72954      0.74768         0.121178      0.617835     -0.136612
O       9.78432      9.88760     13.99797         0.015983     -0.394539     -1.138627
O       9.57995      9.59813      5.00769         0.271734      0.687194     -0.193516
O       9.57136      9.71991      9.40656         0.676881     -0.396826      1.215125
O       3.89488      1.96404      2.85336        -0.110836     -0.508085     -0.302091
O       3.93492      1.97853     15.86375        -0.164898     -0.175705      0.397137
O       3.84079     13.55750      2.70795         0.313563      0.271641      0.671503
O       3.92526     13.62168     15.91676        -0.165279     -0.066401      0.811026
O      15.46022      1.88346      2.76900         0.759794      0.077400      0.057374
O       0.07813      1.98085     15.92654        -0.369843      0.009937      0.428702
O      15.57504     13.61902      2.98070        -0.713132      0.040907     -0.380424
O       0.10087     13.66066     16.02694        -1.328746     -0.326847      0.288823
O       3.81924      1.78511      7.19000         0.483669      0.402841     -0.153518
O       3.78855     13.66857      7.26322         0.397339      0.032173     -0.367951
O      15.58176      2.02266      7.19201        -0.406991     -0.450662     -0.178748
O      15.48011     13.55781      7.39512        -0.132531      0.405543      0.044009
O       3.89442      1.92387     11.59670        -1.109947      0.052159      0.348037
O       3.84307     13.53963     11.64483        -0.103349      0.135284     -0.032705
O      15.55127      1.96236     11.58350         0.588369     -0.120699      0.692073
O      15.55056     13.57387     11.57882         0.010432      0.263913      0.501930
O       3.78219      5.86135      2.68834         0.449939     -0.003115      0.242266
O       3.85086      5.85323     15.94656        -0.390830     -0.111168      1.148963
O      15.50765      5.77762      2.79816         0.060761      0.229209      0.258083
O       0.00545      5.86727     15.96860        -1.394596      0.027913      0.717205
O       3.85809      5.79816      7.10943         0.900262      0.170944      1.023584
O      15.59556      5.81393      7.21482        -0.307201      0.016818      0.349057
O       3.84932      5.95026     11.66683        -0.427697     -0.427668     -0.459766
O      15.50353      5.85086     11.75984         0.160409     -0.026794     -0.422173
O       3.83581      9.68842      2.67980        -0.005380     -0.046161      0.635051
O       3.82911      9.75509     16.23891        -0.146900     -0.611494     -1.013494
O      15.52794      9.77839      2.91238        -0.256094     -0.483609     -0.065945
O      15.58409      9.68506     16.21254        -0.972114      0.831851     -0.622142
O       3.84181      9.80054      6.98998         0.610762     -0.069871      0.922563
O       0.01528      9.76180      7.22089        -1.092308     -0.321479     -0.071973
O       3.91406      9.85004     11.70164        -1.061346     -1.219521     -0.338774
O      15.51579      9.71117     11.61259         0.173535      0.164107     -0.239992
O       7.84259      1.84736      2.62325        -0.288250      0.216622      0.743311
O       7.79028      1.91311     16.08282        -0.171532     -0.084959     -0.416373
O       7.69770     13.71921      2.74244         1.891128     -0.185134      0.285044
O       7.81413     13.54397     16.05904         0.094582      0.247937      0.562613
O       7.77932      2.05024      7.18949        -0.196747     -0.093887      0.079282
O       7.76402     13.51519      7.22628        -0.966780      0.264992     -0.203245
O       7.66542      1.94067     11.56420         0.872131     -0.188109      0.307192
O       7.78368     13.58057     11.52954        -0.257376      0.235520      0.787423
O       7.65562      5.74004      2.73103         1.084288      0.661475      0.082100
O       7.84242      5.78790     16.08035        -0.755244      0.376492      0.193837
O       7.77547      5.87145      7.22755         0.471624     -0.186051     -0.340329
O       7.74141      5.90712     11.43956        -0.283497     -0.304877      0.768006
O       7.64002      9.80015      2.78481         1.784506      0.198805      0.301040
O       7.75813      9.74028     15.95848         0.504350      0.006586      0.674921
O       7.80189      9.78836      7.23700        -0.426217     -0.477193     -0.132613
O       7.77992      9.63276     11.70614         0.070363     -0.101477      0.137459
O      11.65662      2.03358      2.79445         0.019842     -0.176784      0.176720
O      11.72490      1.94787     15.88370         0.419323     -0.761607      0.591365
O      11.71602     13.54162      2.92755        -0.619003      0.075970     -0.353160
O      11.72964     13.67641     16.14099         0.440273     -0.412772     -0.135984
O      11.62835      1.90184      7.27384        -0.535095      0.204827     -0.220165
O      11.58631     13.60760      7.36134        -0.206293      0.804624     -0.111058
O      11.63708      1.95814     11.64170        -0.076786     -0.506895      0.544804
O      11.69505     13.60213     11.63036         0.265534      0.272293      0.597033
O      11.67201      5.80784      2.74214        -0.684562      0.733327      0.623060
O      11.64789      5.80947     15.94321         0.967973      0.515411      0.490070
O      11.69210      5.80666      7.20312        -0.451317      0.418928      0.105509
O      11.62674      5.81959     11.84444         0.801470     -0.083241     -0.536295
O      11.57773      9.74035      2.95817         0.159621      0.256097     -0.312743
O      11.75991      9.92252     16.07375        -0.370626     -0.414167      0.414073
O      11.69104      9.68906      7.24143        -0.513707     -0.016758     -0.699386
O      11.56630      9.71039     11.69804         2.158307      0.318217     -0.214910
O       1.94980      3.77205      2.57463        -0.633212      1.170474      0.799219
O       1.93277      3.87523     16.14638        -0.103610     -0.428152     -0.442184
O       1.93048     15.57678      2.84275        -0.208529     -0.102402      0.248060
O       2.02955     15.55502     15.87577        -0.222895      0.757929      0.430952
O      13.62215      3.87281      2.67273        -0.122838      0.905164      0.332432
O      13.66015      3.91770     15.95273         0.235559      0.193199      0.596760
O      13.50995     15.53659      2.79783         0.268491      0.395781     -0.005709
O      13.84487     15.53751     16.13361        -1.044884      0.430616     -0.425883
O       2.01889      3.91425      7.20306        -0.306764     -1.315441      0.337099
O       1.71193      0.00347      7.28206         0.570364     -0.263379      0.022713
O      13.61444      3.85788      7.37611        -0.155227      0.246382     -0.537489
O      13.44699      0.01322      7.19469         0.753129     -0.024915      0.891415
O       1.86292      3.92218     11.59632         0.176831     -0.054632      0.139737
O       1.97395     15.54433     11.68632        -0.494962      0.386551     -0.014614
O      13.51759      3.86357     11.69341         0.690643      0.980943      0.268129
O      13.66918      0.00922     11.60540        -0.351748     -0.525296      0.348691
O       1.79213      7.73373      2.84521         0.017382      0.504815     -0.115922
O       1.77514      7.87824     16.14619         0.962559     -1.152751     -0.059137
O      13.62149      7.79499      2.95916        -0.256582      0.038248     -0.244216
O      13.56003      7.88835     16.06429         0.335514     -0.487795      0.001492
O       1.93943      7.77400      7.19330         0.030426      0.322243      0.250280
O      13.64879      7.75998      7.18753        -0.084960      0.257159      0.185847
O       1.84509      7.80371     11.45833        -0.017953      0.060807      0.713116
O      13.54605      7.85025     11.59603         0.022919     -0.686136      0.390798
O       1.89172     11.64232      2.85977        -0.056941      0.061030      0.415662
O       1.95206     11.67676     15.99707        -0.253942     -0.504714      0.379116
O      13.67079     11.72049      3.07566        -0.697231     -0.204577     -0.805318
O      13.70674     11.73720     16.22987        -0.016203     -0.388409     -0.493507
O       1.81310     11.66511      7.33387         0.670728      0.294734     -0.597078
O      13.52415     11.69606      7.13524         0.128109     -0.570485      0.256961
O       1.90167     11.62950     11.55833        -0.487759      0.031433      0.303981
O      13.57490     11.59235     11.63749         0.181810      0.785992     -0.073090
O       5.75121      3.85198      2.87565         0.637596      0.400804     -0.712057
O       5.84982      3.80780     16.04792        -0.032529      0.342075     -0.100615
O       5.77478      0.00867      2.80106         0.188419      0.022769      0.008312
O       5.92585     15.51596     15.83988        -0.264074      0.943002      0.486679
O       5.73936      3.85591      7.13179         0.012802     -0.527521      0.190206
O       5.93704     15.59340      7.07691        -0.397783     -0.625852      0.588698
O       5.72536      3.86088     11.46965         0.078792      0.944053      0.502957
O       5.77802     15.53439     11.61858        -0.004262      0.011640      0.313697
O       5.84458      7.78404      2.81344        -0.205494     -0.368390     -0.418565
O       5.86129      7.75586     16.11430        -0.354705      0.225501      0.159829
O       5.69382      7.73164      7.14233         0.666472      0.748467      0.146162
O       5.79422      7.78488     11.73452        -0.129521     -0.370230     -0.438434
O       5.84038     11.72062      2.62876        -0.126598     -0.099344      0.750755
O       5.86047     11.68279     15.99038        -0.181382     -0.616940      0.769881
O       5.75087     11.71890      7.22199         0.368663     -0.211372     -0.198047
O       5.81602     11.60207     11.77939         0.495599      0.476289     -0.511838
O       9.72498      3.96794      2.75899        -0.249414     -0.041574      0.401478
O       9.80752      3.84551     15.99386        -0.362945      0.310064      0.356120
O       9.88741     15.59983      2.79322        -0.761951     -0.625616      0.186876
O       9.74046     15.53975     15.95306         0.031223      0.135444      0.602114
O       9.74278      3.92235      7.12669         0.268165      0.117863      0.085529
O       9.48381      0.03648      7.13164         1.123495     -0.651426     -0.170608
O       9.64740      3.85525     11.61397         0.115363      0.080923      0.448466
O       9.70567     15.54066     11.80616         0.218428     -0.006597     -0.312024
O       9.49315      7.90194      2.75437         0.830972     -1.194625      0.297885
O       9.80554      7.81349     16.01332        -0.089898      0.254630      0.221195
O       9.75249      7.82840      7.15833        -0.028003     -0.586943      0.205370
O       9.83493      7.74531     11.69033        -0.714012      0.208232      0.221378
O       9.71797     11.77091      2.85135        -0.442823     -0.375994     -0.052947
O       9.72637     11.67991     16.16350         0.203922     -0.349033      0.692165
O       9.76226     11.68583      7.27985        -0.313552     -0.527785     -0.478661
O       9.62080     11.57229     11.64154         0.654435      0.863045      0.188947
