  # total energy = -7879.41965104 
CRSYTAL
PRIMVEC
    15.2000000000000000    0.0000000000000000    0.0000000000000000
     0.0000000000000000   15.2000000000000000    0.0000000000000000
     0.0000000000000000    0.0000000000000000    17.000000000000000
PRESSURE
8.22958 8.98621 4.33215 -0.113932 0.030962 -0.089974
PRIMCOORD
320 1
Pb       3.70864      3.87265      4.22714        -0.059957     -0.656709      0.571588
Pb       3.79971      3.85441      0.08454        -0.178129     -0.262934     -0.073737
Pb       3.66318      0.07897      4.33703         0.454738     -0.466545      0.539371
Pb       3.89133     15.19929      0.01814        -0.138026     -0.171461      0.181279
Pb      15.09274      3.91098      4.16650         0.321044     -0.348095      0.703896
Pb       0.00306      3.67947     16.97630         0.114624      0.505225      0.265178
Pb       0.00912      0.13874      4.24600        -0.603883     -0.098866      1.160616
Pb       0.04014     15.18778     16.86867         0.041283     -0.144471      0.253387
Pb       3.83054      3.69697      8.46312        -0.046385      0.882174      0.764232
Pb       3.76456     15.09251      8.54333        -0.285187     -0.105804     -0.089129
Pb      15.13405      3.79782      8.48703         0.236136     -0.417018      0.428574
Pb      15.15874     15.10879      8.66949         0.049551      0.218994     -0.266331
Pb       3.78570      3.84636     12.74799         0.533444     -0.054773     -0.240577
Pb       3.82478     15.12257     12.68521         0.079581     -0.258847     -0.174063
Pb       0.05361      3.58351     12.75449        -0.658486      0.605348     -0.101851
Pb       0.05114     15.16534     12.72968        -0.428531     -0.733043      0.038985
Pb       3.62659      7.71433      4.27433         0.353841     -0.052454      0.122478
Pb       3.93987      7.60517      0.05935        -0.678939     -0.252072     -0.157572
Pb      15.17145      7.71388      4.17921        -0.858479     -0.524013      0.122635
Pb       0.16590      7.65824     16.92553        -0.771624     -0.262798      0.435784
Pb       3.70990      7.57429      8.43401         0.780873      0.151474      0.541605
Pb      15.10283      7.51117      8.50282         0.323722      0.623553      0.775470
Pb       3.85815      7.56120     12.63776        -0.391925     -0.335366      0.110686
Pb      15.14168      7.45060     12.65962         0.220017      0.792787      0.103148
Pb       3.60312     11.47126      4.27253         0.653322      0.081682     -0.040923
Pb       3.89919     11.37408      0.15452        -0.111286      0.531902      0.126082
Pb      15.11680     11.48342      4.18855        -0.251263      0.044099      0.770648
Pb       0.10008     11.41965     16.96284        -0.216456      0.138557      0.249698
Pb       3.77221     11.35548      8.47231         0.029120     -0.169664     -0.235858
Pb      15.01197     11.37211      8.51181         0.496641      0.196493      0.273087
Pb       3.78916     11.29287     12.73984        -0.115876      0.603534     -0.332932
Pb       0.01831     11.26613     12.68888        -0.209051      0.275516     -0.098835
Pb       7.58097      3.75148      4.10456         0.112173      0.271841      0.808257
Pb       7.55875      3.76970     16.95719         0.146582     -0.085674      0.513289
Pb       7.60503      0.07270      4.19945         0.008779     -0.838818      1.107973
Pb       7.59710     15.18232      0.02496        -0.288934     -0.335248     -0.499836
Pb       7.66087      3.90036      8.31718        -0.732449     -0.603271      0.781031
Pb       7.57231     15.10861      8.32206         0.064700      0.252153      0.287482
Pb       7.49242      3.78468     12.71925         0.207901     -0.489634     -0.239943
Pb       7.62829      0.07343     12.69943         0.072462     -0.259143      0.567406
Pb       7.60592      7.68557      4.39170         0.453354     -0.232786     -0.372424
Pb       7.42441      7.63592     16.95089         0.927912     -0.404015      0.707682
Pb       7.61542      7.57474      8.42784        -0.482382     -0.170445      0.579946
Pb       7.60522      7.49144     12.74376        -0.097634      0.012539     -0.364682
Pb       7.59069     11.39805      4.18793         0.090514      0.308921     -0.101446
Pb       7.69659     11.37402      0.00322        -0.323547      0.210587      0.074139
Pb       7.51099     11.43517      8.36474         0.102272     -0.069418      0.410519
Pb       7.46377     11.21658     12.69549         0.944874      0.758888      0.489820
Pb      11.44638      3.63129      4.15305         0.518810      0.613999      0.591917
Pb      11.44532      3.74866      0.00133        -0.102373      0.245132      0.441518
Pb      11.41199      0.02411      4.17691        -0.106116     -0.072926      1.037002
Pb      11.44130     15.11349     16.89554        -0.272807      0.088440     -0.106847
Pb      11.32043      3.80116      8.45676         0.427218     -0.671429      0.002521
Pb      11.27002     15.15581      8.44349         0.213622      0.234278      0.198682
Pb      11.41467      3.80644     12.79537        -0.091146     -0.559354      0.005267
Pb      11.38849     15.10712     12.83109        -0.287054     -0.000951     -0.283403
Pb      11.40148      7.74762      4.16787         0.399928     -0.465121      0.196064
Pb      11.28600      7.51283     16.96038         0.902714      0.474499      0.537621
Pb      11.29829      7.52121      8.38798        -0.011550      0.711754      0.271323
Pb      11.28294      7.40000     12.71172         0.117206      1.277721      0.148491
Pb      11.43605     11.44188      4.13930        -0.352295     -0.266308      0.713621
Pb      11.33835     11.42452      0.05131         0.095407     -0.484843     -0.780607
Pb      11.30798     11.45404      8.51287         0.035275     -0.297191     -0.160980
Pb      11.43885     11.37975     12.89042        -0.299398     -0.060856     -0.665387
Ti       1.91591      1.85879      2.24623        -0.701871      0.691539     -1.245548
Ti       1.98000      1.84329     14.90943        -0.279465     -0.047899      1.875868
Ti       1.71120     13.37682      2.38509         1.351320     -1.303596     -0.386154
Ti       2.00167     13.28536     15.01569        -0.873168     -0.112523     -0.059724
Ti      13.31006      1.78953      2.12688         0.943349      1.167156     -0.129865
Ti      13.29320      1.89266     14.99662         0.195847     -0.608348      0.410160
Ti      13.16990     13.31421      2.21276         0.847303      0.341689     -0.180830
Ti      13.26799     13.22145     15.05153         0.493923      0.283917     -1.023204
Ti       1.89636      1.90401      6.66355        -0.208824     -1.123826     -0.852324
Ti       1.77471     13.27956      6.56466         0.377500      0.515563     -0.256813
Ti      13.39599      1.89417      6.56459        -1.505062     -0.319531     -0.553221
Ti      13.24412     13.34886      6.59595        -0.211206     -0.385263     -1.326501
Ti       1.94530      1.84524     10.75102        -0.444467     -0.379369     -1.280065
Ti       1.85679     13.18553     10.71682        -0.094547      0.628540     -0.254385
Ti      13.26276      1.79083     10.80729         0.142796      0.699996     -0.547923
Ti      13.18557     13.23418     10.79103        -0.222302      0.500130     -0.073504
Ti       1.89502      5.73760      2.26846        -0.738970     -0.736895      0.238190
Ti       1.89828      5.64998     15.00803         0.184616      0.839600     -0.232690
Ti      13.32261      5.72976      2.19307        -0.119699      0.278735      0.438036
Ti      13.33957      5.69440     15.00635         0.362081     -0.077742      1.972252
Ti       1.89344      5.71145      6.56997        -0.080290     -0.899621     -1.280954
Ti      13.28751      5.70683      6.61307         0.531600     -0.410762     -1.690738
Ti       1.84890      5.62826     10.79096         1.074488      0.836664     -0.616854
Ti      13.27812      5.62356     10.75106         0.495704     -0.188818      0.832206
Ti       1.87403      9.51865      2.22393         0.213806      0.187050     -0.641152
Ti       2.02365      9.54525     14.96128        -1.090042     -0.235692      0.220718
Ti      13.33877      9.56073      2.09147        -0.811671     -1.281954      1.007515
Ti      13.40009      9.49995     14.96631        -1.337071     -0.410771     -0.114553
Ti       1.85578      9.49361      6.50794         0.222155      0.764012      0.702149
Ti      13.28625      9.52416      6.57170        -1.475756      0.051833      0.359555
Ti       1.90240      9.50965     10.64047        -0.802242     -1.073179      0.044289
Ti      13.22179      9.46947     10.63911         0.047003      0.090664      0.286914
Ti       5.69279      1.85279      2.37578        -0.318932     -0.255226     -0.555665
Ti       5.70397      1.85331     15.00189         0.327792     -0.155686     -0.933972
Ti       5.62703     13.29534      2.35397        -0.402863     -0.284991     -0.386006
Ti       5.68775     13.22799     14.96826         0.962472      0.613021      0.490090
Ti       5.68680      1.88148      6.61065         0.475720     -0.153258     -1.115485
Ti       5.56713     13.29583      6.44995         0.314773      0.008921      0.063967
Ti       5.69667      1.78743     10.67018         1.029047      0.837666      0.529641
Ti       5.70466     13.20938     10.70833        -1.053829      0.531379     -0.562481
Ti       5.73348      5.77385      2.36398         0.110638     -1.217590      1.058287
Ti       5.65487      5.60999     15.06210        -0.547416      0.650941     -1.464973
Ti       5.65474      5.68045      6.37950         0.119060      0.149781      1.336637
Ti       5.71091      5.65803     10.62823        -0.272658     -0.755163     -0.325198
Ti       5.70571      9.47577      2.31685        -0.039733      1.274486      0.426877
Ti       5.67362      9.51795     15.04351         0.798761     -0.272221     -0.252982
Ti       5.73480      9.47559      6.48429        -0.936463      0.024915     -0.341243
Ti       5.68095      9.44765     10.73735        -0.648484     -0.759590     -1.726287
Ti       9.49801      1.89477      2.17148         0.752137      0.139593      0.300353
Ti       9.52653      1.91155     15.03592        -0.304467     -0.924881     -0.882771
Ti       9.43529     13.33695      2.19921        -0.245519     -1.165819      0.472979
Ti       9.39613     13.27097     14.95432         0.360981     -0.226317     -0.217029
Ti       9.53365      1.91013      6.49408         0.248903     -1.141875     -0.996268
Ti       9.46573     13.28153      6.39080        -0.460491      0.340976     -0.080147
Ti       9.55760      1.92480     10.74519        -0.758510     -0.818014     -0.580538
Ti       9.33613     13.27895     10.73790         2.219105     -0.079441      2.029592
Ti       9.56643      5.70370      2.32489         0.194332      0.354468     -0.782382
Ti       9.50922      5.65444     15.07078        -0.122973     -0.765245     -0.494772
Ti       9.48245      5.67575      6.44193        -0.022695      0.954951     -0.239581
Ti       9.48041      5.63790     10.69113        -0.700165      0.433814     -0.753073
Ti       9.50052      9.50398      2.13834         0.360926     -0.373866      0.109041
Ti       9.48145      9.41340     14.99131         1.379969      0.510899      0.462036
Ti       9.46366      9.56308      6.51138         0.949230     -0.423363      0.392486
Ti       9.48010      9.46453     10.74053         0.096156      0.708031      0.557252
O       1.96906      1.67683      0.43259        -0.067775      0.678490      1.089743
O       1.90848      1.69448     13.16591         0.224230      0.582896     -0.811132
O       1.70776     13.37257      0.62473         0.432750     -0.108666     -0.388407
O       1.86177     13.19086     13.26655         0.392916      0.154114     -0.329089
O      13.33628      1.79769      0.34886        -0.114649     -0.156985      0.218748
O      13.36541      1.90247     13.22329        -0.224363      0.010013     -0.310270
O      13.16570     13.26860      0.43572         0.231378      0.402287     -0.033112
O      13.22203     13.29716     13.22900         0.220258     -0.635183      0.232445
O       1.95759      1.84614      4.85930         0.003845      0.255277     -0.204492
O       1.67195     13.32468      4.77829         0.686196     -0.537861     -1.027423
O      13.36335      1.88600      4.79540        -0.248071      0.055227     -0.934257
O      13.20309     13.15386      4.80791        -0.078443      0.443964     -0.046469
O       1.86943      1.88839      8.94289        -0.112193     -0.036490      0.717364
O       1.69750     13.25740      8.93843         0.541033     -0.249990     -0.115567
O      13.33370      1.87375      9.02947        -0.385954     -0.078236     -0.248537
O      13.26706     13.30225      8.97493        -0.186100      0.097306      0.135451
O       1.91811      5.69379      0.51442         0.101775      0.125384     -0.439056
O       2.05362      5.64709     13.20975        -0.533035      0.270730      0.050656
O      13.36200      5.68997      0.44717        -0.223004      0.108333     -0.328797
O      13.39458      5.58926     13.27315        -0.205496      0.209427     -1.210370
O       1.92741      5.57278      4.74426        -0.152220      0.673002      0.813449
O      13.40742      5.79462      4.86043        -0.000057     -0.182289     -0.232511
O       1.82308      5.70708      9.00780         0.166296     -0.088035      0.263683
O      13.31291      5.58760      9.01097        -0.058194      0.056328     -0.883393
O       1.83629      9.59656      0.44066         0.727003     -0.368286     -0.094493
O       2.03222      9.67032     13.16557        -0.513688     -0.497676      1.042311
O      13.36160      9.36801      0.39655        -0.247976      0.438836     -1.380940
O      13.35463      9.60099     13.14799         0.125250     -0.351396      0.722532
O       1.85901      9.47238      4.72797        -0.025942     -0.107099     -0.018645
O      13.14825      9.40146      4.82624         0.714190      0.484448     -0.667762
O       1.95481      9.43986      8.87896        -0.036689      0.195448     -0.799609
O      13.05571      9.52632      8.86222         0.461520      0.010489      0.428633
O       5.82314      1.92158      0.59042        -0.350531     -0.557200     -0.544725
O       5.65502      1.89762     13.21858        -0.054414     -0.044848      0.008668
O       5.64542     13.36035      0.56464         0.194972     -0.003764     -0.363496
O       5.71618     13.16576     13.23867        -0.306135      0.054135     -1.312376
O       5.60798      1.85803      4.82036         0.230418      0.097971     -0.472630
O       5.63211     13.24254      4.69996         0.015291     -0.117852     -0.378427
O       5.83826      1.69045      8.90925        -0.297076      0.565072      0.147060
O       5.63245     13.27474      8.89549         0.285945     -0.154097      0.810905
O       5.75030      5.59168      0.63564        -0.535879      0.210356     -1.879674
O       5.40215      5.73138     13.26806         1.047064     -0.430816      0.518695
O       5.69653      5.65507      4.62463        -0.149449      0.167518     -1.045427
O       5.69231      5.64870      8.87289         0.264898      0.026602     -0.105968
O       5.65357      9.37836      0.53977        -0.053393      0.239614     -1.083292
O       5.50726      9.52278     13.26683         0.704067     -0.280246     -0.295848
O       5.81887      9.39938      4.67725        -0.105026      0.198586      0.000253
O       5.51849      9.44152      8.95453         0.882213      0.173217      0.125668
O       9.42841      1.93139      0.40115        -0.029815     -0.117322      0.291064
O       9.55393      1.93134     13.25450        -0.074212      0.121906     -0.228482
O       9.45961     13.19208      0.41285        -0.001057      0.187533     -0.078205
O       9.38150     13.34103     13.18464         0.119754     -0.204191      0.526187
O       9.63857      1.75490      4.69629        -0.482064      0.553116     -0.349635
O       9.46229     13.29330      4.63782         0.020578      0.011435     -0.723212
O       9.62835      1.93787      8.92564        -0.348663     -0.031945      0.271784
O       9.44057     13.24686      9.01172        -0.182873      0.098730     -1.169592
O       9.65210      5.55040      0.54352        -0.229662      0.224220     -0.737445
O       9.50070      5.64196     13.26397        -0.009560      0.331862      0.044735
O       9.56718      5.90866      4.71425        -0.396341     -0.658141     -0.540393
O       9.50583      5.61948      8.85493        -0.128573      0.127967      0.665126
O       9.62915      9.55178      0.36481        -0.548174     -0.351661     -0.020777
O       9.44773      9.29261     13.23690        -0.181808      0.001279     -0.613451
O       9.47141      9.41583      4.75871        -0.460795      0.118560     -0.917271
O       9.40522      9.61897      8.98746         0.292215     -0.413417     -0.106477
O       3.77977      1.76308      2.70395        -0.162595      0.372760     -0.528429
O       3.81438      1.77609     15.38120         0.016459      0.255779     -0.071898
O       3.71362     13.33219      2.65566        -0.647523     -0.222920      0.172019
O       3.93463     13.37894     15.44235        -2.182420     -0.003571      0.093773
O      15.19013      1.78126      2.46831         0.279554      0.151130      0.325831
O       0.02041      1.86087     15.32691         0.807894      0.067540     -0.254410
O      15.04086     13.40625      2.82050         0.231052     -0.868236     -0.872217
O       0.01450     13.24404     15.41414         0.156183     -0.231943     -0.370033
O       3.82718      1.81305      7.14573        -0.372891      0.518011     -0.917176
O       3.67623     13.29203      6.94387         1.340981     -0.449065     -0.338044
O      15.19710      1.74500      6.86706         0.776366      0.210659      0.588275
O      15.15364     13.38520      6.80042        -1.420322     -0.296140      0.883196
O       3.84893      1.91968     11.00135        -0.430243     -0.147894      0.181284
O       3.71663     13.17555     11.11850         1.255714      0.123602     -0.125152
O      15.18757      1.66972     11.08604         0.469993      0.788912      0.353686
O       0.00077     13.34702     11.06391        -0.957013     -0.290857      0.431312
O       3.72756      5.54861      2.67742         0.985971      1.022525     -0.528032
O       3.78997      5.65441     15.48288        -0.212808      0.798185      0.521277
O      15.19594      5.72815      2.71851         0.163864      0.585582     -0.273089
O       0.06531      5.63951     15.48870        -0.130593     -0.624155     -0.578508
O       3.78948      5.57731      6.94085        -0.147390      0.405190     -0.561881
O       0.02943      5.76181      6.99463        -0.042406     -0.177713     -0.230357
O       3.84621      5.66862     11.07079        -1.561076     -0.313805      0.002973
O       0.02491      5.61588     11.20201        -0.820472      0.066936     -0.036744
O       3.78591      9.57471      2.71985        -0.144872     -0.767620     -0.206216
O       3.88386      9.40060     15.45337        -1.604932      0.011854      0.177227
O      15.17197      9.55928      2.46519         0.108570      0.014331      0.719836
O       0.07127      9.71248     15.32739         0.320765     -0.142792     -0.457695
O       3.84281      9.49804      6.81230        -0.786044     -0.059555     -0.237868
O      15.11674      9.54923      6.93371         1.185082     -0.603950     -0.272316
O       3.76928      9.53537     10.98916         0.330805     -0.233933      0.603518
O      15.12763      9.62892     10.83872        -0.236626     -0.051343      0.491927
O       7.64734      1.80903      2.69414         0.114151      0.548189     -0.400947
O       7.61268      2.02615     15.21603        -0.255194      0.039549      0.731894
O       7.58109     13.23986      2.57407         0.432797      0.266948      0.187501
O       7.52684     13.16790     15.37726         1.218432      0.001698      0.470959
O       7.62230      1.86094      6.81498        -0.443833     -0.095899      0.195377
O       7.54184     13.23198      6.80783        -0.192074      0.502143      0.029243
O       7.63395      1.84596     11.19758        -0.443420      0.241452     -0.395511
O       7.53368     13.35066     11.13669        -0.360969     -0.296353     -0.182972
O       7.64459      5.66080      2.55451        -0.729138     -0.128450      0.632276
O       7.57181      5.56789     15.39298         0.493173      0.241424     -0.168831
O       7.56290      5.75340      6.74481         0.247947     -0.562979      0.117534
O       7.57013      5.72602     11.11547         0.574386     -0.150319      0.169790
O       7.60987      9.46792      2.49192        -0.353076      0.049813      0.452066
O       7.59164      9.45398     15.42360        -0.607373     -0.360225     -0.200898
O       7.58594      9.39901      6.98961        -0.815914      1.130287     -0.508706
O       7.53091      9.36817     11.22330         0.386332      0.054653     -0.209604
O      11.47228      1.93103      2.46959        -1.241467     -0.070488      0.249275
O      11.43268      1.73777     15.33409         0.063050      0.489915      0.139257
O      11.34246     13.37087      2.64965         0.022445     -0.734799     -0.338228
O      11.35821     13.20397     15.29087        -0.705388      0.290128      0.253786
O      11.39220      2.03516      6.75559         0.058314     -0.213008      0.791409
O      11.27427     13.26847      6.86018         0.757417     -0.036128      0.358363
O      11.37351      1.99102     11.18993         0.567821      0.029005      0.006602
O      11.27889     13.27898     11.18991         0.729208     -0.134917     -0.185208
O      11.47692      5.66256      2.71313        -0.043947      0.259520     -0.305090
O      11.42368      5.60355     15.37245         0.668462      0.647700     -0.218187
O      11.40189      5.62127      6.82306        -0.859487      0.250620      0.356927
O      11.37545      5.67331     11.10153         0.434940     -0.200308     -0.024178
O      11.37570      9.52486      2.57776         0.354197      0.019758     -0.211602
O      11.42161      9.37902     15.28215         0.382955     -0.074135     -0.075667
O      11.34324      9.57411      6.85940        -0.511067     -0.566863      0.231489
O      11.34591      9.36946     11.18952         0.060380      0.221150     -0.254118
O       1.76455      3.79179      2.57948         0.606764     -0.991330     -0.184064
O       2.01489      3.82285     15.34454        -0.273598     -1.835362     -0.103644
O       1.79037     15.16380      2.71818         0.552545      1.294286      0.000496
O       1.96595     15.14701     15.28100        -0.355690      0.546973      0.300020
O      13.43066      3.81732      2.52913        -0.521077     -0.844039     -0.029913
O      13.30202      3.74341     15.51402         0.221561      0.152246     -0.856236
O      13.21098     15.19663      2.68511         0.283136     -0.071110     -0.596460
O      13.25884     15.10888     15.31196         0.323851      0.584169      0.202719
O       1.82775      3.78844      6.96295         0.289399     -0.052130     -0.067119
O       1.94536     15.14456      6.85046        -0.042424      0.901551      0.662507
O      13.38828      3.77057      6.83568         0.098892      0.611995      0.569272
O      13.13831      0.00489      6.88148         0.025177     -0.033662      0.324332
O       1.81685      3.73848     11.18158         0.430331     -0.188567     -0.281184
O       1.97071     15.15099     10.97483         0.191659     -0.036052      0.634074
O      13.37136      3.74148     11.19051        -0.064434      0.260418     -0.079156
O      13.19612     15.14587     11.15443        -0.089497      0.019893      0.136044
O       1.81515      7.66222      2.57080         0.690084     -0.969942      0.386944
O       1.76489      7.66555     15.26145         0.937519     -0.045710     -0.212219
O      13.32524      7.68012      2.59142        -0.044604     -0.503134      0.127387
O      13.58323      7.54710     15.29236        -0.796816      0.663773     -0.385640
O       2.02595      7.59815      6.78172        -0.705362     -0.058769     -0.004039
O      13.24694      7.56418      6.99314        -0.097504      0.749173      0.097705
O       1.70748      7.66187     11.04319         0.734279     -1.134884      0.454653
O      13.38835      7.57117     10.89038        -0.121255     -0.509252      0.788176
O       1.87466     11.29664      2.69931        -0.584986      2.465487      0.083497
O       2.07872     11.47160     15.53349         0.126567     -0.980087     -0.421330
O      13.23414     11.44813      2.49303         0.092311     -0.267359      0.333405
O      13.14970     11.34695     15.44946         0.703530     -0.069847     -0.331177
O       1.86511     11.38452      6.83561        -0.083083     -0.805524      0.099221
O      13.20253     11.46421      6.94289         0.383537     -0.941431      0.072164
O       1.84919     11.31971     11.13434         0.074667      1.011298     -0.246293
O      13.15414     11.40194     11.02654         0.155426     -0.628750      0.256658
O       5.70434      3.67826      2.63682         0.010282      1.112900      0.404751
O       5.54916      3.78131     15.36919         0.398697     -0.634204      0.399772
O       5.74368     15.11000      2.72779        -0.084984      1.779079      0.052696
O       5.88154     15.18516     15.24688        -0.301735      0.118304      0.627876
O       5.72065      3.81880      6.81858        -0.098475     -0.587690      0.201739
O       5.63836     15.17768      6.72540         0.239656     -0.483980      0.701024
O       5.79289      3.74885     11.08246        -0.438064     -0.218099     -0.152102
O       5.64204     15.08063     11.06603        -0.143060      0.978790      0.305590
O       5.62656      7.61513      2.49312        -0.181547     -0.993274      0.676023
O       5.69711      7.51255     15.38505         0.075889      0.738332      0.417374
O       5.74473      7.55542      6.76195        -0.591240      0.234733      0.081457
O       5.63855      7.50625     10.98674         0.039413      1.273139      0.737022
O       5.61563     11.41313      2.57323         0.382908     -0.992392      0.385004
O       5.60766     11.35673     15.49350         0.327331     -0.473818     -0.234542
O       5.68052     11.39341      6.80805        -0.035676     -0.612496      0.134963
O       5.71806     11.33904     11.06007         0.232761      0.140238      0.129673
O       9.60404      3.80453      2.67719        -0.771618     -1.270967     -0.028342
O       9.69622      3.72349     15.37458        -0.541476      1.199141      0.153659
O       9.56264     15.17476      2.44591        -0.366955      1.080835      0.144334
O       9.46670     15.15160     15.32284        -0.385567     -0.129018      0.393910
O       9.37230      3.78102      6.75222         0.468995      0.839976     -0.163126
O       9.47426     15.16265      6.77394         0.070393      0.417367      0.545207
O       9.44178      3.84081     11.03186         0.010753     -0.648455      0.540245
O       9.57529      0.04701     11.12948        -0.511233     -0.483429     -0.240597
O       9.49200      7.58675      2.40923         0.270729      0.501769      0.503142
O       9.61570      7.51007     15.38265        -1.242592     -0.303921      0.039495
O       9.29809      7.64746      6.84696         1.589562     -1.045457      0.212532
O       9.45201      7.53495     11.02565         0.126098      0.023404      0.435704
O       9.46812     11.37220      2.59684         0.152004      0.379360     -0.160478
O       9.46102     11.28050     15.33789         0.158843      0.991371     -0.234811
O       9.38959     11.41980      6.76767        -0.131538     -0.291443      0.361701
O       9.42357     11.37646     11.21278        -0.256558     -0.549740     -0.269513
