  # total energy = -7881.92559944 
CRSYTAL
PRIMVEC
    15.3600000000000000    0.0000000000000000    0.0000000000000000
     0.0000000000000000   15.3600000000000000    0.0000000000000000
     0.0000000000000000    0.0000000000000000    17.440000000000000
PRESSURE
1.95426 2.3338 -0.379871 -0.244175 -0.199125 -0.017925
PRIMCOORD
320 1
Pb       3.82696      3.82628      4.37141        -0.719086      0.382137     -0.540268
Pb       3.88332      3.83317     17.39077         0.029365     -0.070746     -0.187722
Pb       3.81309      0.02296      4.28898        -0.199141     -0.125817     -0.211300
Pb       3.66798      0.01523     17.39052         0.992108     -0.187874      0.643505
Pb       0.02605      3.71895      4.35050         0.137923      0.866174      0.628398
Pb       0.07303      3.98103     17.38871        -0.111661     -0.279764      0.234197
Pb       0.03947     15.33964      4.29100        -0.483689     -0.114307      0.774454
Pb      15.24114     15.29003     17.39524         0.006167      0.067984      0.343536
Pb       3.75700      3.72703      8.74875         0.089849      0.283191      0.129702
Pb       3.91031      0.01272      8.56910        -0.898009     -0.529630      1.049744
Pb      15.23945      3.88529      8.65237        -0.045305      0.029343      0.255705
Pb      15.22559      0.02758      8.66591         0.120223     -0.354715      0.368282
Pb       3.67561      3.72733     13.08081         0.631566     -0.081341     -0.085726
Pb       3.71902     15.29810     12.97137        -0.099629      0.388691      0.376392
Pb       0.02748      3.79512     13.05687        -0.087952      0.225381     -0.124051
Pb       0.02005     15.33600     13.04547        -0.092218     -0.344191     -0.124793
Pb       3.85297      7.64532      4.32420         0.007641     -0.001872     -0.468367
Pb       3.78796      7.57556     17.34960         0.023066      0.559516      0.256002
Pb       0.07644      7.80785      4.36341        -0.414972     -0.474606     -0.024877
Pb      15.12104      7.68775     17.34801         0.557662      0.380532      0.788486
Pb       3.88415      7.69071      8.69384        -0.031461      0.292241      0.308032
Pb       0.07946      7.59347      8.63601        -0.623186     -0.066197      0.572740
Pb       3.78291      7.57192     12.95173         0.432749      0.710551      0.962570
Pb       0.02529      7.62612     13.09331        -0.100752      0.028853      0.399108
Pb       3.79072     11.59404      4.20923         0.006460     -0.361661      0.305059
Pb       3.98184     11.57982     17.40328        -0.563556     -0.234629      0.080348
Pb      15.33579     11.57512      4.36834         0.121044     -0.549975     -0.394346
Pb      15.28996     11.59875     17.27025         0.344515     -0.685365      0.960383
Pb       3.86190     11.54672      8.60468        -0.408469     -0.143087      0.082670
Pb      15.24280     11.39906      8.66767         0.288528      0.336070      0.028160
Pb       3.87421     11.50569     13.16615        -0.226557     -0.510218     -0.296678
Pb       0.10367     11.58475     13.08533        -0.003802     -0.285644      0.408850
Pb       7.72614      3.72909      4.39125         0.248423      0.526596      0.129678
Pb       7.66227      3.90609     17.36286        -0.083933     -0.275929      0.494313
Pb       7.73284      0.05382      4.33913        -0.108137      0.062071     -0.121564
Pb       7.62790      0.08249     17.31457         0.121426     -0.360220      0.525079
Pb       7.68536      3.76142      8.76783        -0.534771      0.170335      0.050905
Pb       7.64369     15.17254      8.65569         0.220999      0.615147      0.724628
Pb       7.81355      3.86717     13.15077        -0.185773      0.334579     -0.692978
Pb       7.60618      0.12750     13.05220         0.616037     -0.648896      0.422844
Pb       7.69168      7.54062      4.29731         0.329392      0.405863      0.605733
Pb       7.64584      7.76692     17.37274         0.038251     -0.390389      0.631770
Pb       7.64162      7.70043      8.63421         0.051199     -0.025035      0.528331
Pb       7.52461      7.68716     13.00001         0.488694      0.032352     -0.004362
Pb       7.66103     11.55861      4.30618        -0.237002     -0.601983      0.643656
Pb       7.76432     11.49831      0.03298         0.174120      0.001871     -0.059597
Pb       7.45276     11.54438      8.53028         0.930812     -0.366478      1.390568
Pb       7.71025     11.43396     13.05517        -0.171303     -0.354850     -0.409754
Pb      11.43823      3.80554      4.29221        -0.217921     -0.158388      1.182586
Pb      11.74957      3.87165     17.41981        -0.939832     -0.068933      0.260311
Pb      11.45261     15.24537      4.29190         0.475615      0.703045      0.329378
Pb      11.41514     15.28904     17.43519         0.317542      0.240228     -0.190848
Pb      11.35730      3.87805      8.69513         0.981710     -0.347899      0.197416
Pb      11.54313     15.30554      8.68339        -0.110767      0.036411      0.194945
Pb      11.60933      3.73455     13.10402        -0.455709      0.168324     -0.316009
Pb      11.61640      0.00546     12.92649        -0.677168     -0.420888      1.110926
Pb      11.45489      7.69830      4.28033         0.347727      0.056811      1.242636
Pb      11.58614      7.62905     17.36990        -0.046527      0.278298      0.747014
Pb      11.45462      7.67244      8.71689         0.320577     -0.277969     -0.391170
Pb      11.40459      7.68437     13.02174         0.335787     -0.133581      0.175838
Pb      11.58921     11.43988      4.30747        -0.113599      0.173025      0.288102
Pb      11.43768     11.41263     17.35926         0.261864      0.390854      0.900976
Pb      11.64458     11.49517      8.57084        -0.517233      0.202089      0.807923
Pb      11.53724     11.44844     12.98274        -0.389259      0.440824      0.943176
Ti       1.79917      1.83803      2.30040         1.427201      1.121448     -0.108373
Ti       1.81753      1.90535     15.48745         0.621160     -0.019967     -1.151161
Ti       1.88469     13.39982      2.17402        -0.260303     -0.050576      0.467980
Ti       1.86221     13.46510     15.44142         0.943743     -0.580034      1.419811
Ti      13.39841      1.95106      2.33662        -0.551805     -0.526396     -0.704479
Ti      13.41752      1.90868     15.50247        -1.055487     -1.425794     -0.750501
Ti      13.47281     13.46171      2.35193        -2.147338     -0.408296     -0.582743
Ti      13.33936     13.40758     15.38969         0.719824      0.711268     -0.784854
Ti       1.84773      1.88278      6.70463        -0.277739      0.108303     -0.104397
Ti       1.76472     13.46184      6.72320         0.926697     -0.894886      0.245304
Ti      13.40977      1.91753      6.70885        -1.005090     -1.029495     -0.433464
Ti      13.38051     13.42561      6.70943        -0.215075     -0.209344     -0.767804
Ti       1.76037      1.86777     11.01508         1.802276     -0.525479      0.368261
Ti       1.93444     13.30693     11.04049        -1.088421      1.084148     -0.844169
Ti      13.39598      1.87198     11.00722        -0.133611     -0.012964     -1.101270
Ti      13.35517     13.28507     11.12366         0.964959      1.278019     -1.686634
Ti       1.81793      5.77786      2.29037         0.472640     -0.562866      0.699026
Ti       1.91939      5.81278     15.42034         0.341704     -0.090190     -0.194486
Ti      13.42122      5.74213      2.59312         0.639069      1.374454     -1.327473
Ti      13.41828      5.68562     15.33274         0.047350      1.723651     -0.242028
Ti       1.95097      5.70664      6.85290        -0.683933      0.397150     -1.968605
Ti      13.38762      5.68107      6.66907         0.256371      0.739928     -0.277055
Ti       1.88084      5.76178     11.04710        -0.454858     -0.376637     -0.257727
Ti      13.43128      5.74503     11.07180        -0.241766     -0.465115     -1.908767
Ti       1.95206      9.56349      2.23358        -0.422506      0.469418     -1.476064
Ti       1.90416      9.61537     15.48686         0.507523      0.347861     -0.542359
Ti      13.46958      9.62582      2.41792         0.607794     -0.815468     -0.761785
Ti      13.44473      9.67031     15.31923         0.193207     -1.313764     -0.225634
Ti       1.95294      9.58728      6.66769         0.434587     -0.340789      0.407502
Ti      13.47018      9.44102      6.73803        -0.117517      0.118774     -1.354336
Ti       1.90702      9.56640     11.06866         1.313573      0.031751     -0.521638
Ti      13.56075      9.54110     11.09200        -0.731609     -0.076923     -0.763880
Ti       5.76660      1.95736      2.39656        -0.358839     -1.017941     -1.710340
Ti       5.71995      1.86262     15.42860        -0.796642      0.671085     -1.213676
Ti       5.73860     13.48653      2.37933        -0.503645      0.012571      0.077768
Ti       5.79923     13.42054     15.35921        -0.612759     -0.050832      0.423491
Ti       5.74499      1.89281      6.69356        -0.051801      0.330754      0.319900
Ti       5.69343     13.44749      6.58141        -0.761017     -0.622753     -0.623490
Ti       5.73839      1.92434     11.10078        -1.006070      0.306232      1.077528
Ti       5.72559     13.48714     11.15999        -0.144482     -1.429196     -0.159370
Ti       5.77576      5.66373      2.33394        -0.492975      1.350279     -0.643741
Ti       5.81297      5.72649     15.37074        -1.406800      0.095642     -0.261415
Ti       5.77273      5.66578      6.72094        -0.209977      0.106602      0.278410
Ti       5.71636      5.76642     11.01490         0.963415     -0.468084      0.215352
Ti       5.84882      9.55608      2.31447        -1.380039      0.106419     -0.392340
Ti       5.76764      9.58806     15.50382        -0.488978     -0.665576     -0.901017
Ti       5.83450      9.50692      6.60930        -0.741743      0.590321     -0.649208
Ti       5.74728      9.61115     11.04152         0.197695     -0.702418      0.406533
Ti       9.61937      1.93951      2.21742        -0.399636     -0.348843      0.239762
Ti       9.55360      1.99952     15.43714         0.832914     -0.724405     -1.157123
Ti       9.57588     13.40782      2.45170        -0.061304      0.125169     -1.680488
Ti       9.60073     13.48507     15.42728         0.289096      0.207355     -1.150000
Ti       9.54885      1.88907      6.78219         0.720648     -0.999969     -1.047788
Ti       9.55263     13.46565      6.70062         0.333966     -0.509476     -0.021673
Ti       9.53688      1.86907     11.06950         0.273562      0.271000      0.261913
Ti       9.53572     13.39973     11.09010         0.101247      0.255211     -0.683390
Ti       9.59822      5.68763      2.32626        -0.659666      0.927443      0.181243
Ti       9.58172      5.79306     15.47559         0.505344     -0.689704     -0.825488
Ti       9.57510      5.69021      6.81525        -0.367994      1.182900     -1.208805
Ti       9.65601      5.76831     11.02519        -1.241233     -0.795055     -0.233457
Ti       9.61391      9.61612      2.40028         0.124743     -0.602706     -0.996387
Ti       9.66133      9.58629     15.42287        -1.029645     -0.124948      0.449872
Ti       9.66971      9.66668      6.79922        -1.584663     -1.158884     -1.893290
Ti       9.69299      9.61046     10.90252        -1.733059     -0.177365      0.367291
O       1.88028      1.87138      0.53099        -0.561671      0.270048      0.052668
O       1.86091      1.75176     13.65209        -0.387984      0.346087      1.210127
O       1.88756     13.37699      0.43063        -0.110130      0.179972      0.070256
O       1.95379     13.43935     13.72021        -0.178043      0.007692     -1.743867
O      13.44087      2.04597      0.49043        -0.106355      0.059386      1.414777
O      13.33579      1.68864     13.74002         0.681733      0.756290     -0.148895
O      13.31200     13.42365      0.61367         0.134291     -0.026894     -0.747315
O      13.28473     13.30947     13.60672         0.492786      0.540995      0.093472
O       1.86294      1.82710      4.92359        -0.052703     -0.039223      0.134017
O       1.81153     13.50025      4.98900        -0.267127     -0.007945     -0.886855
O      13.35045      1.75393      4.97453         0.042145      0.243723     -0.786744
O      13.34003     13.43495      4.93289         0.219745     -0.099662     -0.446445
O       1.87023      1.92187      9.26805        -0.384116     -0.209227      0.071261
O       1.85045     13.28252      9.29357         0.081950     -0.150935     -0.684759
O      13.35313      1.78225      9.18506         0.293566      0.491310      1.267889
O      13.37257     13.27905      9.28487         0.055123     -0.027720      0.545534
O       1.87357      5.80110      0.51838        -0.042984     -0.475806      0.039410
O       1.86236      5.67626     13.67856        -0.153363      0.320048     -0.917407
O      13.48587      5.73272      0.76647        -0.445281     -0.505776     -0.040305
O      13.42167      5.78126     13.57919        -0.225162     -0.312900      0.163783
O       1.88580      5.71263      5.05015         0.552064      0.107828      0.558152
O      13.40058      5.86692      4.92849         0.378053     -0.404076     -0.671468
O       1.69084      5.78577      9.28521         0.736454     -0.342346      0.261594
O      13.41641      5.63356      9.20462        -0.262475      0.168540      1.447944
O       1.85677      9.58056      0.40601         0.093328      0.150285      1.844266
O       2.09548      9.61689     13.70935        -0.631428      0.140515     -0.024784
O      13.52265      9.58022      0.67585        -0.362358      0.186922     -1.367351
O      13.46915      9.64877     13.56489        -0.295343     -0.211001      0.193383
O       1.95986      9.55508      4.89808        -0.110987     -0.256190     -0.058533
O      13.57766      9.48624      4.91971        -0.390947      0.255298      0.623723
O       1.97852      9.48989      9.28033        -0.518150      0.398327      0.946320
O      13.51740      9.56985      9.24747        -0.288984      0.064538      1.481205
O       5.76157      1.91795      0.59718         0.111685      0.123745      0.495723
O       5.53890      1.93711     13.64362         0.971168     -0.382197      0.694145
O       5.72264     13.50824      0.63073         0.326596     -0.323939     -0.302781
O       5.67503     13.37286     13.61146         0.180901      0.102366     -0.243741
O       5.66157      1.99464      4.94421         0.023905     -0.215696     -0.489045
O       5.59679     13.52554      4.83066         0.217197     -0.229075      0.313399
O       5.78068      1.82209      9.38193        -0.353774      0.200643     -1.080635
O       5.72219     13.20840      9.43341        -0.216274      0.778864     -1.406662
O       5.74668      5.59823      0.54247        -0.106040      0.175172      0.643435
O       5.76895      5.78646     13.60425         0.214014     -0.057098      0.511517
O       5.78834      5.68420      4.94515        -0.583903     -0.138795      0.269668
O       5.85740      5.81775      9.24842        -0.346701     -0.450597      0.499300
O       5.73545      9.66199      0.51017         0.447775     -0.109656      0.445734
O       5.92720      9.53087     13.71167        -0.499834      0.118886      0.530258
O       5.79624      9.59270      4.83013        -0.117872     -0.430012      0.658108
O       5.68143      9.45817      9.31053         0.363982      0.552687     -1.116267
O       9.68840      1.97863      0.47346        -0.284955     -0.279065     -0.202776
O       9.39239      1.94269     13.60125         0.540747      0.386897      0.600383
O       9.53923     13.29848      0.62593         0.236994      0.436268      0.839165
O       9.72673     13.50479     13.69158        -0.558702     -0.541746     -0.291921
O       9.42064      1.91470      5.00326         0.377625     -0.101894     -0.018685
O       9.50308     13.46256      4.94098         0.141557      0.205683     -0.476884
O       9.39428      1.88106      9.31276         0.609392     -0.034368     -0.274700
O       9.57174     13.47840      9.32411        -0.282621     -0.106321      0.157580
O       9.49807      5.76255      0.59481         0.396746     -0.105039     -0.294332
O       9.67345      5.61662     13.67835        -0.204686      0.337315      0.584991
O       9.33179      5.66975      5.07444         0.359928     -0.051923     -0.764219
O       9.63352      5.67523      9.21107         0.026692     -0.150857      0.060476
O       9.56541      9.71074      0.56898         0.260218     -0.115670      1.121649
O       9.53192      9.59821     13.70089         0.368405     -0.173294     -0.585497
O       9.45579      9.48656      4.96084         0.789852      0.546446      0.897382
O       9.57025      9.63054      9.12885         0.541039     -0.205868      0.735200
O       3.72016      1.81891      2.62200         0.292937      0.263032      0.648284
O       3.81144      1.83458     15.79798        -0.034107      0.161715      0.351887
O       3.69689     13.49362      2.69844         0.952586      0.251724      0.082278
O       3.80363     13.49708     15.92240         0.905953     -0.301470     -0.648205
O      15.24230      1.84786      2.90725        -0.120422      0.476561     -1.046299
O      15.26274      2.04274     15.82092         1.419514     -0.738809      0.109264
O      15.26041     13.38532      2.52644         1.333778      0.142154      0.819676
O      15.34497     13.46950     15.78086        -1.415111      0.331156      0.025924
O       3.73868      1.89195      7.18379         0.526381     -0.376353     -0.372823
O       3.72817     13.41385      7.01390         0.951147      0.053154      0.387866
O      15.28298      1.88112      7.10010         0.582618     -0.221258      0.074095
O      15.22059     13.24907      7.09536         0.791351      0.464128      0.108197
O       3.70547      1.79021     11.57571         0.153135      1.037960     -0.864184
O       3.74600     13.35283     11.43496         1.443163      0.046799      0.478469
O      15.27443      1.84565     11.60893         0.212522      0.001815     -0.682859
O      15.32182     13.31354     11.49862         0.044875      0.351049      0.160634
O       3.79891      5.72476      2.79965        -0.339096      0.261532     -0.170396
O       3.81283      5.63280     15.69554         0.311811      0.620090      0.643832
O      15.31559      5.68101      2.83324         0.585558      0.073699     -0.021418
O      15.35128      5.79942     15.79394        -0.791005     -0.245468     -0.063711
O       3.80098      5.71308      7.30073         0.768552     -0.388030     -0.542900
O      15.32358      5.72495      7.13867        -0.105299     -0.197110     -0.042454
O       3.77225      5.75528     11.45231         0.105897     -0.178014     -0.546817
O      15.24712      5.77012     11.49328         1.713675      0.136166      0.244142
O       3.86783      9.47058      2.59720        -0.756081      0.373155      0.441149
O       3.77109      9.60981     15.83579         1.391623      0.328217      0.331043
O       0.00505      9.72061      2.74133         1.121248     -0.227288      0.456354
O      15.30672      9.51052     15.72856        -0.418674      0.404567      0.069898
O       3.86376      9.49878      7.15090         0.174827      0.344144     -0.637545
O      15.30688      9.42729      7.15198         1.032261      0.525977     -0.511495
O       3.84288      9.48800     11.43408        -0.251611      0.227030      0.232640
O       0.04220      9.50654     11.66364        -0.144215      0.684859     -1.025034
O       7.70511      1.85197      2.70529        -0.911698      0.452312      0.066839
O       7.67456      2.01339     15.76347        -1.104555     -0.535318      0.320079
O       7.58539     13.41708      2.83770         1.031813      0.234685     -0.259571
O       7.74286     13.49288     15.74750        -1.172523     -0.675225      0.203517
O       7.60559      1.82885      7.04567        -0.563296      0.206032      0.388810
O       7.61685     13.42086      7.09183        -0.219979      0.205738     -0.366173
O       7.65763      1.78606     11.45042        -0.648734      0.490355      0.100741
O       7.59739     13.44652     11.44457         1.100698      0.253527      0.493666
O       7.62784      5.72734      2.82588         0.596980     -0.460083     -0.574287
O       7.67707      5.85694     15.86978        -0.028666     -0.497910     -0.396834
O       7.62739      5.54270      7.04713        -0.541518      0.223585      0.784873
O       7.70816      5.81236     11.48443         0.091752     -0.558619     -0.316384
O       7.70621      9.71538      2.64991        -0.044107     -0.595159      0.094678
O       7.69179      9.53942     15.88427        -0.212899      0.363030     -0.088553
O       7.67968      9.57886      7.13843        -0.827533     -0.082341     -0.214472
O       7.74517      9.46901     11.46807         0.265212      0.153578     -0.328426
O      11.45248      1.97878      2.71877         0.493079      0.050117     -0.044565
O      11.49084      1.96718     15.68574         0.146048      0.286864      0.725901
O      11.44963     13.32945      2.81749        -0.210940      0.547702      0.084972
O      11.54219     13.58391     15.77410        -0.870668     -0.887860      0.641507
O      11.47708      1.72458      7.10291        -0.423913      0.743270      0.176085
O      11.44937     13.37166      7.06834         0.165925      0.031994      0.132058
O      11.54551      1.94725     11.53182        -0.343372      0.149207     -0.623752
O      11.46773     13.32537     11.45020         0.216846     -0.097426     -0.076743
O      11.45839      5.77245      2.91805        -0.114068     -0.635487     -0.636383
O      11.50660      5.79951     15.87550         0.547932     -0.690487     -0.187781
O      11.45202      5.70481      6.80031         0.048287     -0.491035      1.415547
O      11.54583      5.56978     11.35922        -0.432721      0.513546      0.534243
O      11.53556      9.49930      2.74934        -0.809874      0.912773      0.175049
O      11.50928      9.59275     15.84833         0.609193      0.078628     -0.269207
O      11.50754      9.49611      7.17032         0.414863      0.226839     -0.307526
O      11.52915      9.57859     11.65254         0.042529     -0.027739     -1.630189
O       1.77139      3.80064      2.74979         0.371667     -0.171802     -0.286091
O       1.94420      3.81419     15.70654        -0.495136     -0.415644      0.626515
O       1.70770     15.32323      2.67767         0.376384     -0.191615     -0.146008
O       1.87039     15.32750     15.97546        -0.754719      1.267057     -0.674125
O      13.31961      3.86398      2.99077         0.622469     -1.240256     -0.883237
O      13.45395      3.87047     15.76748        -0.255413      0.094988     -0.041233
O      13.23592      0.05703      2.57681         0.404674     -0.325228      0.381074
O      13.41401     15.30133     15.94601         0.144284      0.833021     -0.215816
O       1.80985      3.76663      7.08715         0.452655     -0.041924      0.352736
O       1.74147     15.30688      7.10980         0.257050      0.492200      0.197767
O      13.36417      3.74880      6.99913        -0.091910      1.037486      0.342436
O      13.36270     15.28224      7.06726         0.533976     -0.456764      0.495455
O       1.87383      3.84081     11.38493        -0.498581     -0.394455      0.371379
O       1.87492     15.27994     11.32887        -0.571446      0.355367      0.485025
O      13.55906      3.82421     11.43181        -0.479711     -0.880009      0.260684
O      13.36015     15.31804     11.30348         0.347833     -0.097597      0.404426
O       1.79343      7.67500      2.62399         0.326454     -0.038801      0.318826
O       1.96715      7.72516     15.76278        -0.240811     -1.323820      0.047904
O      13.51855      7.71618      2.64986        -0.257037     -0.998544      0.993992
O      13.32973      7.70545     15.83440         0.345775     -0.528770     -0.449359
O       1.94590      7.62505      7.16342        -0.180177      0.347533     -0.217706
O      13.34525      7.54377      7.11932         0.003423      0.879044      0.273208
O       1.88647      7.63474     11.57882        -0.290190      0.042876     -0.498590
O      13.42150      7.69495     11.45559        -0.368911     -0.392670      0.010477
O       1.91576     11.56840      2.68332        -0.029132     -0.787653      0.032247
O       1.76517     11.60028     15.77400         0.508012     -1.120049      0.028213
O      13.34728     11.49695      2.70691         0.060148      1.011375      0.821987
O      13.44265     11.52238     15.69016        -0.288086      0.051909      0.535282
O       1.89870     11.43635      6.91066        -0.279537      0.185738      0.701276
O      13.39179     11.37529      7.00391        -0.082115      0.484782      0.316551
O       2.03382     11.46815     11.51295        -0.880942     -1.092480      0.112658
O      13.47912     11.46852     11.42778        -0.208814     -1.057926      0.205186
O       5.63024      3.83053      2.71617         0.349856     -0.774536      0.427889
O       5.72908      3.83265     15.78400         0.276516     -0.322127      0.127260
O       5.73329      0.01661      2.78243        -0.091653      0.377221      0.230516
O       5.86098     15.29079     15.78875        -0.338277      0.955193     -0.184049
O       5.61307      3.74381      7.27041         0.428962      0.019191     -0.635787
O       5.68265     15.28958      7.05168         0.068140      0.707033      0.106913
O       5.67765      3.82753     11.47716         0.195027     -0.261159     -0.346779
O       5.61295     15.32629     11.42452         0.411522      0.485258      0.295602
O       5.83703      7.64518      2.64004        -0.251297      0.106270      0.186674
O       5.65648      7.61724     15.89824         0.407812      0.371194     -0.220167
O       5.78692      7.63950      7.05443        -0.004355     -0.580533     -0.271086
O       5.76298      7.63442     11.39696        -0.203511     -0.110352      0.536745
O       5.69699     11.52643      2.79034        -0.142711     -0.029206     -0.385232
O       5.66498     11.49783     15.71884         0.588870      0.503459      0.305187
O       5.77908     11.52434      6.94919        -0.601955     -0.206655      0.074122
O       5.86529     11.41446     11.40983        -0.499974      0.755324      0.802015
O       9.47466      3.80202      2.68895         0.437922      0.377385      0.240193
O       9.54484      3.84253     15.89621         0.201258      1.037665     -0.342731
O       9.55247      0.03803      2.72641         0.238491     -0.920285     -0.048481
O       9.58079      0.07586     15.71320        -0.048375     -0.478249      0.881447
O       9.58297      3.69922      7.14273        -0.111632      1.287243      0.493268
O       9.55689     15.33687      7.17998        -0.364054     -0.795101     -0.063695
O       9.54975      3.80621     11.41787        -0.079223     -0.284414      0.146345
O       9.63322     15.31654     11.51390        -0.215488      0.316552     -0.276968
O       9.69882      7.63033      2.80120        -1.508635      0.369662     -0.562180
O       9.65213      7.65276     15.86514        -0.200477      0.466379     -0.119454
O       9.54885      7.66044      7.16432         0.085919     -0.692887      0.143436
O       9.72128      7.63831     11.28679         0.328796      0.257776      0.213275
O       9.53970     11.51332      2.82639         0.432254     -0.254901      0.068628
O       9.61311     11.48836     15.87812        -0.083962      0.529206     -0.374605
O       9.52306     11.50860      7.07346         0.313201      0.677107     -0.078620
O       9.51418     11.44311     11.42948         0.350374      0.348462      0.018884
