  # total energy = -7883.47987123 
CRSYTAL
PRIMVEC
    15.3600000000000000    0.0000000000000000    0.0000000000000000
     0.0000000000000000   15.3600000000000000    0.0000000000000000
     0.0000000000000000    0.0000000000000000    17.440000000000000
PRESSURE
2.53112 2.42431 1.57975 0.245157 0.325205 -0.013217
PRIMCOORD
320 1
Pb       3.84106      3.74565      4.31071        -0.127093      0.273165      0.227838
Pb       3.75599      3.75979     17.40654         0.942028      0.176241      0.520885
Pb       3.78026     15.28087      4.34010        -0.205828      0.090265      0.364145
Pb       3.68767     15.27328     17.29639         0.768778     -0.006974      0.826858
Pb       0.05133      3.73011      4.25426         0.041661      0.452169      1.213716
Pb       0.05257      3.84434     17.38813        -0.458984     -0.303686      0.325791
Pb       0.02935     15.33598      4.26212         0.084451      0.057212      1.250867
Pb      15.32685     15.27974     17.38015        -0.676590      0.315067      0.141618
Pb       3.74659      3.78831      8.75556         0.440861      0.450409     -0.496539
Pb       3.85021      0.03528      8.56774        -0.149814     -0.050075      0.346752
Pb      15.34678      3.93540      8.71360        -0.586431      0.004955     -0.195425
Pb      15.21540      0.00364      8.72027         0.391183      0.299488      0.275581
Pb       3.77983      3.79069     12.99052         0.768477      0.344950      0.247794
Pb       3.75549      0.06115     12.92198         0.433491     -0.538123      0.610985
Pb       0.03800      3.79508     13.05234        -0.046588     -0.450156      0.565036
Pb      15.31426     15.27610     13.04532         0.404690      0.285413      0.341326
Pb       3.81409      7.65265      4.33866         0.181855     -0.334169     -0.080805
Pb       3.80992      7.55372     17.32341        -0.203515      0.383561      0.144690
Pb       0.01126      7.79537      4.28984        -0.014621     -0.270134      0.369375
Pb      15.22344      7.57018     17.38935         0.493624      0.625503      0.481542
Pb       3.77455      7.73613      8.66357         0.236870     -0.294248      0.236801
Pb      15.35695      7.68140      8.66134        -0.270864      0.129831      0.226551
Pb       3.81638      7.58528     12.94162         0.589582      0.087195      0.549006
Pb      15.30872      7.56991     13.07525         0.275274      0.397046      0.193235
Pb       3.86593     11.53949      4.32059        -0.275069     -0.086139      0.611736
Pb       3.77228     11.59698     17.35140         0.210858     -0.675231      0.238888
Pb      15.24072     11.50803      4.36258         0.668725     -0.382392     -0.061201
Pb      15.27652     11.55546     17.31619        -0.110598     -0.281413      0.883146
Pb       3.87963     11.49358      8.67713        -0.260052      0.026378     -0.132763
Pb      15.26634     11.49812      8.71719         0.500770     -0.326943      0.199804
Pb       3.81927     11.43442     12.99117         0.270318      0.399691      0.521778
Pb       0.09410     11.52614     12.99744        -0.437266      0.106863      0.599303
Pb       7.69566      3.71265      4.28309        -0.238913      0.560305      0.480646
Pb       7.54901      3.77721      0.02781         0.312593      0.434190      0.373617
Pb       7.72340     15.24813      4.37126        -0.225516      0.492288      0.828825
Pb       7.65573      0.00417     17.40191         0.191583     -0.635510      0.434147
Pb       7.65118      3.87237      8.59957         0.173693      0.206302      0.915678
Pb       7.63265      0.01525      8.68185         0.435560     -0.032705      0.181066
Pb       7.77664      3.91828     12.97234        -0.237035     -0.227719      1.102023
Pb       7.57813      0.11137     12.95554         0.140167     -0.556217      1.170206
Pb       7.75663      7.62033      4.33536        -0.669265     -0.336934      0.201546
Pb       7.53475      7.74339     17.37941         0.691760     -0.066088      0.286208
Pb       7.72594      7.63156      8.66529        -0.033870      0.127408      0.482293
Pb       7.66880      7.71318     12.99557        -0.012088     -0.347518      0.329964
Pb       7.67607     11.49073      4.32858         0.232601     -0.238373      0.863792
Pb       7.64191     11.47044     17.40518        -0.210685      0.204055     -0.395856
Pb       7.62893     11.58223      8.61836         0.033044     -0.263671      1.020863
Pb       7.63808     11.46968     12.92791         0.543518      0.368838      0.885637
Pb      11.41834      3.80427      4.22535         0.566608     -0.275995      0.985700
Pb      11.61601      3.81356      0.00497        -0.669901     -0.091050      0.417208
Pb      11.53570     15.21437      4.36183         0.063331      0.705808      0.492732
Pb      11.37810     15.28917      0.08323         0.803782      0.022353     -0.131365
Pb      11.36474      3.86631      8.62974         1.721243     -0.205045      1.291440
Pb      11.48914      0.04807      8.67439        -0.152708     -0.057330      0.453671
Pb      11.59494      3.75281     13.07819        -0.826472     -0.362251      0.838302
Pb      11.57717     15.35238     12.97022        -0.964856      0.017711      1.482450
Pb      11.45398      7.62953      4.24225         0.964677      0.129650      1.119105
Pb      11.52316      7.67564     17.41036        -0.718340      0.669079      0.531459
Pb      11.52502      7.70373      8.64537         0.086383      0.288426      0.520684
Pb      11.47176      7.59138     13.10228        -0.185748      0.360214      0.319231
Pb      11.54136     11.50461      4.21614        -0.268973      0.158477      0.582267
Pb      11.39862     11.45431     17.38660         0.221177      0.160661      0.416775
Pb      11.58850     11.50785      8.55728        -0.248330     -0.136847      1.629061
Pb      11.57537     11.49156     13.03312        -0.768697      0.227017      0.525201
Ti       2.01367      1.83709      2.28415        -0.588170      0.015858      2.599183
Ti       1.91912      1.91486     15.39943        -0.363759     -0.501321     -0.544164
Ti       1.87467     13.35675      2.33480         0.651730      0.001251     -0.876613
Ti       1.82681     13.40227     15.38595         0.149370     -0.316862     -0.235377
Ti      13.53483      1.94376      2.39975        -0.487383     -0.735064     -0.329417
Ti      13.45873      1.91020     15.47568        -0.503505     -1.275119      0.545422
Ti      13.51239     13.50606      2.31935        -1.283572     -0.933251     -0.621999
Ti      13.33665     13.37486     15.46386         0.041389      1.442353     -0.390220
Ti       1.88037      1.91539      6.73737         0.043958      0.393172     -0.050671
Ti       1.86597     13.45248      6.75418        -0.027158     -0.531461     -0.615987
Ti      13.41624      1.94785      6.69049         1.292413      0.685933     -1.408295
Ti      13.41569     13.49036      6.74492         0.254867      0.070054      0.067820
Ti       1.93510      1.97034     10.98960        -0.261447     -1.203694      0.180105
Ti       1.90169     13.42702     10.95192         0.341757      0.385000      1.717554
Ti      13.46398      1.91661     11.08519         0.002777     -0.744460     -1.210017
Ti      13.41700     13.42336     11.15991        -0.141876     -0.647125     -0.436430
Ti       1.88169      5.73272      2.34881         0.348764      0.039013      0.697635
Ti       1.86839      5.74294     15.39421         0.953008      0.513310     -0.633702
Ti      13.39772      5.74590      2.42605         0.714294      0.330270      0.788675
Ti      13.32497      5.70828     15.42752         0.733348      0.128431     -0.596942
Ti       1.93025      5.80097      6.74845        -0.991916     -0.311413      0.231510
Ti      13.36873      5.76924      6.61600         1.707067      0.030639     -0.380620
Ti       1.87593      5.74124     11.03386         0.472302      0.150399     -0.320527
Ti      13.47323      5.65486     11.19466        -0.220826      0.838989     -1.801334
Ti       1.97927      9.63922      2.25890        -0.868677     -0.797261      0.236020
Ti       1.78846      9.57140     15.43014         0.893851      0.033497      0.805882
Ti      13.39822      9.62761      2.30394         1.168478     -0.198876     -0.190295
Ti      13.40446      9.57456     15.36494        -0.389659      0.072400      0.885746
Ti       1.98216      9.64375      6.65436        -1.841915      0.450639      1.061823
Ti      13.45849      9.63114      6.68343         0.640068     -0.974814     -0.139733
Ti       1.89150      9.57821     11.09154         0.270247      0.026342     -2.099121
Ti      13.47307      9.51956     11.17754        -0.575602      0.716722     -0.653109
Ti       5.84382      1.79342      2.47478        -0.239600      1.235960     -0.556803
Ti       5.80642      1.84500     15.48945        -0.365652      0.225229     -0.082529
Ti       5.73530     13.41470      2.43448         0.039313     -0.210313      0.584520
Ti       5.74603     13.39278     15.34826         0.439292     -0.051484     -1.385179
Ti       5.78228      2.01059      6.72493         0.022366     -0.505555     -0.808410
Ti       5.71108     13.46772      6.72308         0.151319     -0.280748     -0.519384
Ti       5.75990      1.96501     10.95912         0.641757      0.696338      0.383832
Ti       5.75750     13.46117     11.02966         0.306345     -0.181805      0.130969
Ti       5.67999      5.68076      2.33970         0.251558     -0.131014      0.414066
Ti       5.74106      5.67676     15.38161         0.081361      0.214053     -0.461691
Ti       5.70368      5.78534      6.66127         0.413189     -0.878141      0.602005
Ti       5.76628      5.73915     11.03888         0.987187      0.347114     -0.517656
Ti       5.75858      9.55787      2.39067        -0.059854     -0.468932      0.310909
Ti       5.62413      9.52278     15.32817         0.465808      1.176014     -0.279037
Ti       5.80435      9.54501      6.70237         0.370099      0.428316     -0.588765
Ti       5.76968      9.63204     11.02410         0.327077     -1.007424      0.134266
Ti       9.69292      1.86956      2.39419        -0.485943     -0.637824     -0.103967
Ti       9.63100      1.93713     15.55165         0.692894      0.543850     -1.049826
Ti       9.54376     13.38543      2.43559         0.447252      0.549802     -0.638681
Ti       9.63682     13.44332     15.33901        -0.826406      0.322095     -1.150388
Ti       9.63168      1.90268      6.68644        -0.068079     -0.323491     -0.967478
Ti       9.54671     13.41674      6.72951         0.602776      0.382624     -0.547496
Ti       9.58155      1.90298     11.10527         0.502635     -0.093601     -0.685067
Ti       9.60235     13.48981     11.07081        -0.793850     -0.463829      1.038956
Ti       9.55263      5.75068      2.31919        -0.451538     -0.607443     -1.375326
Ti       9.52721      5.76580     15.57898        -0.036681      0.474540      0.296257
Ti       9.62175      5.74908      6.74058        -0.836568      0.546277     -0.552564
Ti       9.74119      5.75416     11.08197        -1.676653      0.000860      0.406055
Ti       9.60591      9.50018      2.34822         0.019381      1.319295     -2.096635
Ti       9.53895      9.63074     15.42415        -0.426408     -0.693355      0.525739
Ti       9.57529      9.67063      6.74055         0.433037     -1.090992      0.599359
Ti       9.64727      9.61867     11.11862         0.073427      0.025533     -1.392778
O       1.98861      1.91930      0.60595        -0.423872     -0.160498     -2.520223
O       1.81625      1.90742     13.59641         0.672660      0.049695      1.477590
O       1.93565     13.37547      0.54126        -0.094185      0.178636      0.496053
O       1.81387     13.40878     13.62330         0.187552      0.023254      0.244698
O      13.67065      1.85167      0.61648        -0.486317      0.468791      1.046587
O      13.44622      1.95094     13.73806         0.151447     -0.059704     -0.967539
O      13.38901     13.55581      0.54696         0.341201     -0.247713      0.660490
O      13.39320     13.41827     13.68891        -0.056223      0.054120     -0.054944
O       1.92354      1.93303      4.96550        -0.012150     -0.007562      0.529677
O       1.86807     13.47678      4.97696        -0.030576     -0.299587      0.277966
O      13.48130      1.91532      4.87237        -0.011365      0.128462      1.365925
O      13.40927     13.49976      5.00786         0.104812     -0.381288     -0.175991
O       2.00091      1.93510      9.24914         0.084473      0.015435     -0.442668
O       1.95695     13.40040      9.25162         0.138215      0.177382     -0.962308
O      13.44431      1.87421      9.30797         0.013965     -0.015262      0.760271
O      13.48093     13.35146      9.41130        -0.229748      0.302344     -0.361687
O       1.91798      5.78100      0.58305        -0.061539     -0.156429     -0.122691
O       1.94762      5.81992     13.64039        -0.084076     -0.651651     -0.176761
O      13.52535      5.67587      0.68788        -0.036948      0.305414     -1.085573
O      13.37550      5.65784     13.64010         0.099587      0.434618      0.758406
O       2.00123      5.71775      5.03603        -0.222779      0.053723     -1.078015
O      13.33897      5.81057      4.83449         0.039428     -0.058914      0.927591
O       1.77168      5.86314      9.27206         0.574894     -0.440905      0.595494
O      13.50696      5.71412      9.42423        -0.267872     -0.255517      0.906295
O       1.92168      9.53479      0.50733         0.015633      0.069939     -0.109169
O       1.77978      9.65035     13.71388         0.112002     -0.059173     -1.588293
O      13.48145      9.56116      0.54918        -0.167360      0.118875      0.387090
O      13.42890      9.47438     13.60614        -0.029985      0.181551      0.237869
O       1.70170      9.70113      4.94744         0.690591     -0.315626     -0.367710
O      13.48700      9.56728      4.90922        -0.002935      0.348511      0.365128
O       1.92214      9.67559      9.27869         0.373177     -0.478120      1.380343
O      13.51315      9.77384      9.44015        -0.325469     -0.385506     -0.237671
O       5.93632      1.91422      0.73298        -0.154766     -0.383553     -0.607129
O       5.78383      1.83281     13.77945        -0.195415      0.108526     -1.152668
O       5.79976     13.33371      0.72620        -0.171341     -0.044414     -1.013799
O       5.65052     13.48380     13.53970         0.252199     -0.200284      1.437706
O       5.77191      1.94441      4.94910        -0.072635      0.193660      0.136548
O       5.71278     13.46502      4.95688        -0.091231     -0.030373      0.151175
O       5.85504      2.03099      9.22123        -0.197654     -0.276902     -0.639172
O       5.81923     13.39932      9.22557        -0.439402      0.130248      0.905214
O       5.63177      5.56543      0.59928        -0.113542      0.402609     -0.605331
O       5.71639      5.84700     13.60289         0.088241     -0.516966      0.960235
O       5.76798      5.75819      4.91813        -0.042884     -0.007825     -0.182853
O       5.82376      5.83114      9.26832        -0.049256     -0.458633      0.584588
O       5.76239      9.64055      0.65027        -0.070018      0.084371      0.286503
O       5.69243      9.58522     13.55013         0.047793     -0.173370      0.726179
O       5.93403      9.50724      4.93531        -0.396487     -0.117084      0.460522
O       5.75740      9.60059      9.25685        -0.226608      0.163197     -0.044508
O       9.77708      1.77420      0.63379        -0.606540      0.291985      0.042686
O       9.69833      2.05740     13.77096        -0.361122     -0.354366      0.795176
O       9.63083     13.47174      0.68264        -0.210219     -0.132367     -0.079897
O       9.71404     13.46501     13.55157        -0.324705     -0.147495      1.353946
O       9.63211      2.01039      4.90598         0.160287     -0.225598      0.860243
O       9.63230     13.38417      4.95038        -0.229523      0.074376      0.398344
O       9.73764      1.80887      9.32946        -0.515451      0.250650      0.105237
O       9.51480     13.71085      9.36256         0.110591     -0.363581     -1.092460
O       9.62928      5.80002      0.55420         0.042388      0.064728      1.123512
O       9.61106      5.70585     13.84062         0.084707      0.174002     -0.789146
O       9.49108      5.74265      4.99026         0.512786      0.017185     -0.459787
O       9.69908      5.75982      9.33297         0.131611      0.090000     -0.313971
O       9.59787      9.53767      0.51981        -0.187855      0.302171      1.651522
O       9.55853      9.51409     13.69378         0.171702      0.273958     -0.858236
O       9.62243      9.75713      5.01594        -0.052853     -0.613624     -0.657226
O       9.65083      9.38271      9.34619         0.057002      0.610882      0.656836
O       3.81968      1.85974      2.67760         0.572781     -0.192348      0.489276
O       3.87280      1.86979     15.94689        -0.786691     -0.463030     -0.672708
O       3.77549     13.36205      2.83861         0.499955     -0.008556     -0.196803
O       3.82928     13.41056     15.87249        -0.314847      0.178264     -0.601416
O       0.04506      1.86988      2.85279        -0.083014     -0.003240     -0.753341
O      15.33533      1.93470     15.90179         1.760195      0.154787     -0.316159
O       0.01343     13.40931      2.68293        -0.650118     -0.279437      0.177692
O      15.23316     13.47179     15.82125         0.798502     -0.368272     -0.034230
O       3.90823      2.05415      7.08930        -0.968646     -0.350569      0.290518
O       3.85149     13.38365      7.11150        -0.182968      0.079053      0.170427
O       0.06237      1.84469      7.23254        -0.576732      0.388519     -0.542152
O      15.31753     13.49797      7.26733        -0.076002     -0.146012     -0.654029
O       3.89312      1.86448     11.35722        -0.590242      0.609791      0.304822
O       3.84574     13.35329     11.52919        -0.333507      0.460794     -0.930381
O       0.07445      1.97716     11.39391        -0.986938     -0.460959      0.174816
O       0.02136     13.46715     11.46939        -0.065793      0.043011     -0.138627
O       3.78854      5.71891      2.88028        -0.145271     -0.349857     -0.473920
O       3.80238      5.67334     15.76438         0.580602      0.384613      0.329346
O      15.31012      5.63871      2.87520         1.045818      0.902617     -0.834367
O       0.00947      5.77654     15.73677        -0.739586     -0.455965      0.356840
O       3.82363      5.70714      7.05531         0.430207      0.264403      0.598791
O      15.33421      5.81464      7.09927        -0.384244     -0.045709     -0.010944
O       3.92156      5.74163     11.41134        -1.761394     -0.192253      0.021734
O       0.00998      5.73677     11.58477         0.113815     -0.402037     -0.176204
O       3.84438      9.68585      2.81176         0.454401     -0.313799     -0.204793
O       3.74273      9.65883     15.73603         0.300149     -0.291198      0.175106
O       0.04654      9.59353      2.79867        -0.614112      0.049445     -0.553791
O      15.26713      9.64515     15.81946        -0.088593     -0.309496     -0.058871
O       3.87502      9.61537      7.07724         0.132137     -0.000158     -0.180479
O       0.00850      9.60575      7.20187        -0.293384      0.403291     -0.511079
O       3.87383      9.64122     11.46175        -1.071019     -0.374587     -0.289479
O       0.02163      9.55215     11.45191         0.134572     -0.265435      0.535573
O       7.77045      1.86375      2.90968        -1.046594     -0.053745     -0.526570
O       7.71618      1.88190     16.01548         0.343838      0.241387     -0.583340
O       7.64653     13.45101      2.88861        -0.536165     -0.124627     -0.354035
O       7.65890     13.39014     15.75345         0.182550      0.039586      0.061498
O       7.76983      1.94073      6.96615        -0.656607      0.179187      0.605279
O       7.70060     13.53616      7.19688        -0.578610     -0.510727     -0.545635
O       7.68389      2.04454     11.53169        -0.150723     -0.309211     -0.501528
O       7.61546     13.33415     11.46458        -0.094049      0.646127     -0.155901
O       7.63245      5.84831      2.67934         0.642739     -0.306539      0.079938
O       7.65894      5.80029     15.99147        -1.194364     -0.570510     -0.600624
O       7.71845      5.71306      7.10960        -0.073684      0.188450      0.067263
O       7.78723      5.67996     11.54204        -0.337105      0.608223     -0.689968
O       7.79142      9.46110      2.79216        -1.495726      0.001107     -0.132262
O       7.58014      9.63221     15.81359        -0.000180      0.067736     -0.000717
O       7.71201      9.62296      7.20788        -0.463289     -0.621684     -0.349596
O       7.70243      9.55865     11.41753        -0.188842      0.328957      0.184579
O      11.57161      1.79227      2.78806        -0.180174      0.286969     -0.247546
O      11.60547      1.97987     15.97862        -1.043697      0.056510     -0.176201
O      11.50491     13.53639      2.83355        -0.186617     -0.908624     -0.529278
O      11.48265     13.38494     15.90385        -0.171845      0.247017     -0.142776
O      11.61819      1.96425      7.07939        -1.634371     -0.250338      0.121024
O      11.54915     13.40771      7.18488        -0.589354      0.334597     -0.330624
O      11.52001      1.78699     11.42893         0.301716      0.660403      0.176782
O      11.45004     13.51999     11.42391         1.251052     -0.054965      0.007627
O      11.52197      5.68165      2.85964        -0.801482      0.367105     -0.820239
O      11.51166      5.87377     15.95116         0.580981     -0.597029     -0.552847
O      11.53003      5.77503      7.09562         0.279237      0.044168      0.080049
O      11.54137      5.70640     11.65794         0.267323      0.075113     -0.623933
O      11.53628      9.58217      2.74385        -0.785773      0.536510      0.011900
O      11.42618      9.58624     15.90022         1.155795     -0.273284     -0.617658
O      11.51413      9.62716      7.15730         0.270399     -0.078001     -0.300274
O      11.55775      9.69415     11.49048        -0.196735     -0.932102      0.203131
O       1.97492      3.75318      2.74845        -0.458622      0.713475     -0.324920
O       2.07989      3.76577     15.83644        -1.472027      0.150210     -0.544291
O       1.84268     15.23078      2.76249         0.675662      1.151188     -0.362168
O       1.84086     15.25279     15.80308         0.376438      1.708977     -0.058991
O      13.42876      3.81536      2.77951        -0.105712     -0.598046     -0.289316
O      13.44163      3.85138     15.86412         0.113163      0.932083      0.138119
O      13.44982     15.26813      2.92492         0.280124      1.127082     -0.810104
O      13.38321      0.01696     15.84703         0.228176     -0.356942     -0.073269
O       1.84000      3.91764      7.30614         0.508996     -1.056334     -0.728891
O       1.97166     15.32914      7.06895         0.345880      1.011049      0.400057
O      13.50336      3.88305      7.13922        -0.194172     -0.152844     -0.399306
O      13.43734      0.07191      7.10221         0.007308     -0.971176      0.230143
O       1.90802      3.83635     11.50118         0.508769      0.327858     -0.298198
O       1.95923      0.06190     11.44570        -0.261469     -1.006334     -0.397656
O      13.50034      3.74101     11.60816        -0.361183      0.459935     -0.436431
O      13.42227     15.33973     11.61524         0.857822      0.280024     -0.806917
O       2.04354      7.66880      2.80731        -0.800096     -0.211318     -0.447671
O       1.92211      7.66280     15.66310        -0.162984     -0.278113      0.710687
O      13.36496      7.74468      2.72222         0.345308     -1.081091     -0.027523
O      13.45535      7.69967     15.95105        -0.280554     -0.600179     -1.016748
O       1.87112      7.74548      7.12505         0.732887     -0.106410     -0.169747
O      13.52523      7.73495      7.18400        -1.002822     -0.409372     -0.545933
O       1.94332      7.56085     11.45860        -0.140838      1.486345      0.054486
O      13.43940      7.59568     11.45433        -0.100387      0.413822      0.435737
O       1.89518     11.46309      2.70485        -0.008918      0.661809      0.174125
O       1.74842     11.57149     15.86182         0.625970     -0.660404     -0.297132
O      13.39731     11.53722      2.73490         0.177238      0.295486     -0.034075
O      13.33148     11.49366     15.90691         0.231252     -0.485773     -0.622946
O       1.85272     11.55967      7.06346         0.461686     -0.448385      0.279366
O      13.43854     11.50162      7.10404         0.212597      0.644298     -0.148821
O       1.80277     11.47667     11.38846         0.643570      0.435962      0.130041
O      13.40358     11.54152     11.66804         0.659704      0.094366     -0.662915
O       5.75813      3.74749      2.75242         0.057085      0.537869      0.414412
O       5.78613      3.77824     15.78505         0.006838      0.620560      0.230683
O       5.62389     15.33264      2.79794         0.660809     -0.919388      0.166673
O       5.84990     15.32399     15.82983        -0.584253     -0.717655      0.314763
O       5.82117      3.87528      7.26511        -0.359840     -0.158118     -0.969527
O       5.70339      0.00599      7.07030         0.238636      0.617370      0.212348
O       5.68635      3.83507     11.48728         0.348309     -0.155371     -0.074102
O       5.85095      0.10114     11.35090        -0.376642     -1.481636     -0.105061
O       5.61442      7.58220      2.65574         0.264951      1.430954      0.304516
O       5.73766      7.63874     15.83232        -0.544778      0.133811     -0.178422
O       5.75930      7.59996      7.08675         0.079048      1.457073      0.088150
O       5.77592      7.66158     11.39191         0.032645      0.304044      0.182594
O       5.82735     11.49121      2.98352        -0.360979     -0.359340     -1.118279
O       5.67932     11.46872     15.82892         0.178179      0.529203     -0.239895
O       5.85348     11.49625      7.06869        -0.353253      0.114148     -0.006976
O       5.80914     11.47883     11.55830        -0.751486      0.592351     -0.952631
O       9.54157      3.80569      2.64022         0.370943      0.278261      0.260147
O       9.62234      3.90785     16.00191         0.080155     -1.214680      0.041517
O       9.39287     15.32618      2.84346         1.554099      0.034536     -0.352015
O       9.68534     15.35741     15.86579        -0.393467      0.017188     -0.173827
O       9.71455      3.83328      7.17963        -0.869365     -0.387060     -0.777790
O       9.56658     15.31320      7.12706         0.767130      1.064652     -0.332747
O       9.67078      3.81627     11.53803         0.327952      0.184720     -0.424260
O       9.45101      0.01961     11.60616         0.430351      0.454245     -0.571970
O       9.71805      7.64272      2.73223        -0.431453     -0.241871      0.096151
O       9.44931      7.72680     15.91319         0.650848     -0.100927     -0.180971
O       9.64465      7.65990      7.16671        -0.153522      0.186465     -0.466158
O       9.59696      7.70612     11.60769         0.718882     -0.985416     -0.352876
O       9.41001     11.49340      2.74537         1.233833     -0.365728     -0.188265
O       9.62714     11.57190     15.82430        -0.373690     -0.556069      0.011041
O       9.53422     11.54129      7.16947         0.330387      0.212322      0.074794
O       9.64590     11.55654     11.43088        -0.305718     -0.472794     -0.054977
