  # total energy = -7880.41183386 
CRSYTAL
PRIMVEC
    15.3600000000000000    0.0000000000000000    0.0000000000000000
     0.0000000000000000   15.3600000000000000    0.0000000000000000
     0.0000000000000000    0.0000000000000000    17.440000000000000
PRESSURE
2.70248 2.76857 2.22551 0.242785 0.047681 0.001549
PRIMCOORD
320 1
Pb       3.79466      3.87090      4.21844         0.011001     -0.489313      0.582683
Pb       3.77069      3.89549     17.33436         0.198098      0.047985     -0.107631
Pb       3.84719      0.01323      4.22039         0.349011     -0.165177      0.299655
Pb       3.96070      0.07278      0.01984        -0.521468     -0.522506      0.416761
Pb      15.21727      3.90658      4.27871         0.590748     -0.103988      0.494708
Pb      15.21161      3.76969     17.39187         0.203182      0.303042      0.030617
Pb      15.22917     15.30220      4.30642         0.180549     -0.136166      0.820368
Pb       0.05558     15.34303      0.00671        -0.114475      0.141746     -0.190635
Pb       3.91773      3.87586      8.59293         0.118181     -0.589085      0.877339
Pb       3.77276     15.25768      8.78161         0.518949      0.168070     -0.331380
Pb       0.13668      3.67174      8.65742        -0.504611      0.372422      0.133255
Pb       0.16187     15.31838      8.58413        -0.892960     -0.090517      0.394536
Pb       3.82116      3.94014     13.08269        -0.216446     -0.510198     -0.170760
Pb       3.97154     15.28722     13.24949        -0.542772      0.771476     -0.591128
Pb      15.23302      3.85301     12.97728         0.541889      0.479689      0.234583
Pb      15.34656      0.05277     12.99339        -0.249017     -0.689066      0.008425
Pb       3.80844      7.64101      4.28118         0.009277     -0.046428      0.141576
Pb       3.82767      7.77912      0.01119        -0.040105     -0.545435     -0.709334
Pb      15.21376      7.46115      4.30931         0.099495      0.420429      0.398481
Pb       0.14205      7.69571     17.39750        -0.318825     -0.614075     -0.241404
Pb       3.84705      7.53293      8.69202        -0.090527      1.253074      0.687267
Pb      15.32455      7.67499      8.68677         0.324324     -0.143960      0.092193
Pb       3.79523      7.81439     13.08504         0.310166      0.077548     -0.177325
Pb       0.00914      7.73174     12.90530        -0.271404     -0.179577      0.281299
Pb       3.82090     11.41887      4.32141        -0.444274      0.506470      0.149649
Pb       3.75371     11.40887     17.42437         0.644208      0.361901      0.247817
Pb       0.00298     11.43558      4.26491        -0.694035      0.268681      0.769105
Pb       0.07834     11.39318      0.04883        -0.441560      0.533731      0.185821
Pb       3.70412     11.50890      8.68355         0.586918     -0.227538     -0.062223
Pb       0.08647     11.55262      8.59939        -0.740671      0.158965      0.459238
Pb       3.74461     11.57756     13.01000         0.137730     -0.554043      0.230900
Pb      15.15380     11.41845     13.06250         0.465221      0.467859     -0.314055
Pb       7.59709      3.93048      4.31276         0.031120     -0.694648      0.017143
Pb       7.70860      3.85124     17.28362        -0.402403      0.111040      0.762770
Pb       7.59521      0.02503      4.17847        -0.063413      0.207122      0.393603
Pb       7.79570     15.28554     17.43243        -0.072742      0.034485      0.528412
Pb       7.70403      3.72214      8.71599         0.294273      0.065046     -0.121682
Pb       7.67177     15.35026      8.65395        -0.113863      0.268895      0.524482
Pb       7.49528      3.68240     13.05799         0.370851     -0.341839      0.627047
Pb       7.68887     15.07664     13.14973         0.257486      1.673727      0.232797
Pb       7.57179      7.75140      4.33648         0.529217     -0.176860      0.136973
Pb       7.79902      7.50894     17.38275        -0.502894      0.433842     -0.108900
Pb       7.58148      7.65396      8.68257         0.530665     -0.329269      0.223559
Pb       7.67120      7.61193     13.00687         0.045564      0.146463      0.737128
Pb       7.66787     11.52599      4.25734         0.314429     -0.236924      0.514793
Pb       7.71150     11.45929     17.38481        -0.026958      0.248634      0.160483
Pb       7.73728     11.39257      8.76711        -0.526304      0.218501     -0.065697
Pb       7.58020     11.48518     13.09874         0.326276     -0.104492     -0.331558
Pb      11.54204      3.89159      4.38703        -0.034131     -0.247201      0.168615
Pb      11.28245      3.79399     17.27591         1.459536     -0.003945      1.589297
Pb      11.43196      0.14543      4.26646         0.197633     -0.321417      0.546722
Pb      11.71027      0.02842     17.29686        -0.785476      0.261820      1.177645
Pb      11.65423      3.73437      8.71789        -0.501610      0.370453     -0.033547
Pb      11.49486     15.25492      8.62059         0.333161      0.345354      0.224105
Pb      11.41161      3.90714     12.93309         0.992354     -0.276519      0.660861
Pb      11.43382     15.28886     13.05504         0.290759      0.387714     -0.230673
Pb      11.51750      7.71076      4.34898        -0.415087     -0.087155      0.657834
Pb      11.46154      7.63027     17.35094         0.082255     -0.227338      0.209637
Pb      11.43287      7.58653      8.67400         0.037874     -0.467349      0.431163
Pb      11.62128      7.74113     12.88771        -0.250038     -0.724832      0.733775
Pb      11.40237     11.55419      4.39916         0.277522     -0.237721      0.444883
Pb      11.65595     11.56967     17.42382        -0.770912     -0.090219      0.310046
Pb      11.35935     11.51755      8.75354         0.863342      0.489913      0.318364
Pb      11.37797     11.52484     13.00921         0.117112      0.181964      0.235959
Ti       1.88862      1.84426      2.36295        -0.036217      1.027542      0.452531
Ti       1.93971      1.86629     15.40409        -0.146212      0.701609     -0.060247
Ti       1.91917     13.41780      2.31734        -0.194057      0.198720      1.224778
Ti       1.91427     13.37802     15.57845        -0.191273      0.693765     -1.720923
Ti      13.46046      1.95817      2.31220        -0.845370      0.356718     -0.303883
Ti      13.42572      1.93669     15.32896         0.489158      1.116666     -1.008135
Ti      13.35784     13.43520      2.40447         0.148368      0.027055     -0.327156
Ti      13.45181     13.41176     15.41869         0.617241      0.511725      0.074855
Ti       2.06414      1.95961      6.69479        -0.598186     -0.560106     -1.380410
Ti       1.91370     13.46655      6.60136         0.254325     -0.494833     -1.025739
Ti      13.46381      1.82582      6.73588        -0.223733     -0.039229      1.220009
Ti      13.39915     13.35427      6.73591         0.029519     -0.026650      1.302432
Ti       1.93829      1.85487     11.17107         0.934243      0.652339     -1.000214
Ti       1.89327     13.41571     11.07529        -0.950347      0.043577     -0.996519
Ti      13.47311      1.91546     11.04706        -0.850335     -0.452548     -0.405620
Ti      13.38652     13.39166     10.98668         0.583114      0.954837     -0.488459
Ti       1.90602      5.73334      2.20679        -0.874987     -0.544964     -0.508824
Ti       1.91691      5.73992     15.34712        -0.132511      0.609552      0.506913
Ti      13.30203      5.84226      2.32608         1.014129     -2.082600     -0.222285
Ti      13.47278      5.77846     15.43240        -0.188329     -0.327124     -0.635699
Ti       1.98247      5.83531      6.78159        -1.420428     -0.544969      0.395379
Ti      13.45561      5.72521      6.84922        -0.774718     -0.405368     -1.105125
Ti       1.97241      5.77691     11.06968        -1.103427     -0.065547     -0.999828
Ti      13.41581      5.74902     10.98296        -0.075414      0.098676     -1.139978
Ti       1.81318      9.51376      2.38161        -0.410344      0.284159      0.490193
Ti       1.82570      9.65194     15.33876         1.316778     -1.779625      0.234378
Ti      13.30798      9.62998      2.33840         0.390460     -0.053285      1.897018
Ti      13.38311      9.63362     15.50443        -0.252016     -0.983397     -1.111978
Ti       1.83430      9.59234      6.63589         0.935918     -0.316589      0.759637
Ti      13.40966      9.56352      6.80541        -0.747686      1.034379     -0.195752
Ti       1.86145      9.62170     10.93735         0.967233      0.525911      2.109687
Ti      13.36383      9.64525     10.88260         0.868083     -0.415786      0.195340
Ti       5.73915      1.94706      2.20746         0.684802     -0.315861      0.695460
Ti       5.82902      1.81371     15.55126         0.227990      1.618160     -2.163481
Ti       5.77050     13.28470      2.39173         0.296758      2.119141     -1.559684
Ti       5.71913     13.41466     15.52053         0.805376     -0.687758      1.726477
Ti       5.78848      1.84119      6.67906         0.607948      0.104360     -1.049121
Ti       5.75723     13.32651      6.71264        -0.683948      1.029013      0.062800
Ti       5.71538      1.90305     11.04199         0.556177     -0.198982      0.825275
Ti       5.65417     13.52861     11.09210         1.087980     -1.477533     -1.198899
Ti       5.68380      5.74903      2.28440         1.314391      0.066042      0.572954
Ti       5.67307      5.75089     15.43553         0.688744      0.387461      0.539268
Ti       5.75865      5.76561      6.67949         0.902447     -0.942780     -0.721722
Ti       5.77379      5.80133     11.05181        -0.246373      0.046017      1.642283
Ti       5.65795      9.56326      2.29340         0.831096      0.052415      0.011807
Ti       5.70587      9.61861     15.49968         0.234343     -0.878592     -0.152600
Ti       5.69804      9.57668      6.70822        -0.129198     -0.316367      2.443183
Ti       5.80687      9.59095     11.09702        -1.769074      0.539998     -0.380328
Ti       9.61304      1.88652      2.30049         0.052544      0.674040      0.486312
Ti       9.58525      1.90961     15.40350        -0.310715     -0.323620     -1.385916
Ti       9.59807     13.38040      2.35023         0.623114      0.553437      0.472677
Ti       9.66123     13.45679     15.51884        -1.136262     -0.460700     -0.863216
Ti       9.59658      1.95827      6.62247         0.895443      0.209371     -0.643558
Ti       9.49642     13.49579      6.73438         1.381160     -0.762207     -1.513871
Ti       9.58557      1.95335     11.12385        -0.873495     -1.625874     -0.643438
Ti       9.52306     13.51891     11.07483         1.329144     -0.397540      1.070501
Ti       9.53570      5.70076      2.43065         0.742422     -0.175313     -1.018180
Ti       9.62964      5.72846     15.31836        -0.242427     -0.180378      1.346092
Ti       9.51881      5.69745      6.70146         1.555198      0.326732      1.812412
Ti       9.50011      5.65628     11.06140         1.991623      0.961341     -2.479956
Ti       9.53959      9.52689      2.31477         0.184004      0.282323     -0.186314
Ti       9.57269      9.56020     15.37537        -0.216295      1.065488      0.624199
Ti       9.60901      9.52231      6.89499         0.158621      0.402643     -0.001802
Ti       9.58575      9.55905     11.10232        -0.071569      0.055060     -0.451358
O       1.65734      1.95126      0.65631         0.527000     -0.097467     -1.276448
O       2.13073      1.98781     13.66841        -0.523665     -0.829867     -0.149182
O       1.73648     13.38844      0.57629         0.497022     -0.233706     -0.631406
O       1.98186     13.35612     13.79199         0.161286      0.046329      0.215015
O      13.49450      2.04924      0.52212         0.055841     -0.454201      0.687497
O      13.59826      1.99110     13.55126        -0.331197     -0.340080      0.485289
O      13.27416     13.48045      0.63510         0.132691     -0.186944     -0.554416
O      13.41080     13.27372     13.70408         0.026996      0.441196     -0.950976
O       2.13123      2.01104      4.92501        -0.053479     -0.431710      0.517480
O       1.85198     13.46528      4.81126         0.293176      0.005136      0.543157
O      13.38574      1.88975      5.03412        -0.062285      0.116438     -1.892015
O      13.47344     13.38195      5.02487        -0.146635     -0.099647     -2.059035
O       1.96265      1.86791      9.39004        -0.145993      0.179871     -0.614190
O       1.78167     13.38301      9.26840         0.934741      0.188028      0.269199
O      13.49634      1.84382      9.25312         0.046702      0.137397      0.851044
O      13.43751     13.55431      9.24432         0.050898     -0.197900      0.241841
O       1.89044      5.77653      0.42131         0.021056     -0.166413      1.112374
O       1.84386      5.74553     13.59040         0.505628      0.487210     -0.998654
O      13.38415      5.66549      0.62220        -0.064580      0.302481     -1.599938
O      13.41009      5.78947     13.67365         0.129666      0.004310     -0.311909
O       1.86777      5.74677      5.07166         0.282533      0.297347     -1.368061
O      13.50191      5.76918      5.00803         0.354723     -0.064991      0.060631
O       2.03586      5.93627      9.26521        -0.314261     -0.680511      0.342306
O      13.26411      5.73507      9.21749         0.826616      0.227732     -0.572760
O       1.81810      9.59956      0.62163         0.162185      0.157042     -0.080559
O       1.83099      9.58822     13.59131        -0.041140      0.201632     -0.254102
O      13.34190      9.70763      0.65680        -0.154437     -0.123345     -3.007575
O      13.41803      9.62683     13.74733         0.285170      0.093515     -0.375990
O       1.86603      9.57458      4.89087         0.020215     -0.158379     -1.201316
O      13.39061      9.69702      5.05131        -0.025591     -0.373063     -0.621862
O       1.89025      9.59585      9.25253        -0.019588      0.055257     -2.386902
O      13.35974      9.55428      9.16065         0.363421     -0.206606      0.150423
O       5.86519      2.01843      0.44651        -0.567093     -0.240066      0.412749
O       5.83650      1.78506     13.65792        -0.273122     -0.033141      1.683583
O       6.01835     13.20023      0.63754        -0.921281      0.512579     -0.042814
O       5.68930     13.58037     13.80295        -0.096847     -0.177753     -1.868125
O       5.75892      1.83588      4.84435         0.055671      0.170907      1.210619
O       5.84577     13.48840      4.97327        -0.211788     -0.508056     -0.812462
O       5.74176      1.88879      9.30157         0.155353      0.178984     -0.318319
O       5.53903     13.45738      9.34750         0.414178     -0.113747     -0.382062
O       5.67400      5.72235      0.56318         0.391697      0.000702     -0.786945
O       5.68866      5.82444     13.72064        -0.133477     -0.163447     -1.511961
O       5.74370      5.64598      4.91231        -0.166232      0.654344     -0.188567
O       5.79797      5.87208      9.35723        -0.016792     -0.239697     -1.845999
O       5.61631      9.69607      0.56268         0.013632     -0.173514     -0.775212
O       5.68528      9.53318     13.76987         0.286391      0.349158     -1.382172
O       5.80355      9.47935      5.01791        -0.135824      0.337873     -2.261133
O       5.71411      9.70429      9.35347         0.430184     -0.692236     -0.142380
O       9.71481      1.93974      0.56373        -0.375771     -0.235193     -1.071738
O       9.46687      1.95117     13.64169         0.155257      0.033935      0.021527
O       9.70716     13.45896      0.61574        -0.253004     -0.155668     -1.166316
O       9.69305     13.55874     13.74437        -0.060457     -0.447744     -0.568490
O       9.76858      2.16670      4.84092        -0.750711     -1.053558      0.697440
O       9.71065     13.44252      4.93833        -0.866457     -0.305152      0.928573
O       9.35277      1.76257      9.37773         0.657761      0.447872     -0.239567
O       9.56728     13.52077      9.37575        -0.215047      0.060396     -1.954100
O       9.66147      5.75904      0.62088        -0.472493      0.330429      0.513154
O       9.79012      5.55583     13.64190        -0.697773      0.692357     -1.774215
O       9.69574      5.89917      5.02051        -0.409832     -0.463279     -2.352960
O       9.52716      5.71210      9.22070        -0.210237     -0.038200      1.387238
O       9.65443      9.35829      0.57489        -0.144106      0.586958     -0.078294
O       9.56959      9.70468     13.63359        -0.109715     -0.355903     -0.318360
O       9.53288      9.48235      5.17751         0.057855      0.460885     -1.757986
O       9.69575      9.57080      9.32066        -0.865533      0.005092      0.648409
O       3.81204      1.93088      2.60297         0.808393      0.091551     -0.033496
O       3.93258      1.79487     15.91916        -1.294304      0.317265     -0.129172
O       3.87672     13.37107      2.77167        -0.735275      0.004240     -0.282894
O       3.82799     13.47123     15.98450         0.298815     -0.046628      0.167988
O       0.01135      1.78548      2.86342        -0.812460      0.621273     -0.344656
O       0.04989      1.94960     15.79612         0.072037     -0.453306     -0.170108
O      15.33798     13.63497      2.70129        -0.218923     -0.950639     -0.121554
O      15.34841     13.46519     15.79929        -0.557778     -0.202399      0.425660
O       3.98532      1.98708      7.15339        -1.566055     -0.307554     -0.089026
O       3.81504     13.42322      6.99848         0.113752     -0.466620      0.417779
O       0.03511      1.81540      6.94994         1.111418      0.485950      0.623241
O       0.07298     13.36685      7.01782        -0.496704      0.362291      0.335485
O       3.85507      1.78834     11.49072         0.412518      0.434154      0.237633
O       3.84598     13.51615     11.42701        -0.789627      0.077911      0.891896
O       0.02976      1.91032     11.50084        -0.477289      0.188140     -0.031377
O       0.01431     13.39284     11.39664        -0.571834     -0.123294      0.688473
O       3.86637      5.84128      2.55454        -1.403000     -0.245995      0.783394
O       3.83578      5.82669     15.92712        -0.487568     -0.672950     -0.275581
O      15.33956      5.79743      2.68230         0.511293     -0.339935      0.179351
O       0.07828      5.84219     15.75868        -1.268945      0.110222      0.285730
O       3.89234      5.74871      7.13914        -0.762207     -0.002550     -0.212321
O       0.00602      5.75920      7.15546         0.427237     -0.026536      0.441309
O       3.83670      5.89883     11.35093         0.402400     -0.062493      0.674232
O       0.02921      5.60550     11.23071        -0.146047      1.031849      0.565914
O       3.78357      9.44422      2.70474        -0.499124      0.904065      0.485163
O       3.77874      9.70500     15.82593        -0.267059     -0.396558      0.195909
O      15.21952      9.58885      2.61742         1.527441     -0.069763      0.584064
O       0.00826      9.67322     15.88061        -0.860626     -0.654319     -0.032304
O       3.83647      9.45906      7.02936        -0.615389      0.525484     -0.016794
O      15.34139      9.63598      7.10436        -0.235279     -0.736086      0.034436
O       3.80830      9.43833     11.37724         0.301780      0.256015      0.480434
O      15.33334      9.73604     11.36270        -0.968695     -0.298429      0.119417
O       7.69835      1.90923      2.62612        -0.624547      0.059679      0.256861
O       7.73136      1.96187     15.91554        -0.787026     -0.150684     -0.061420
O       7.70612     13.42909      2.78040        -0.016103     -0.156758      0.235573
O       7.67447     13.42415     15.79008        -0.062911     -0.262620      0.311098
O       7.74164      1.84260      7.13771        -1.055211      0.493440     -0.360731
O       7.62400     13.38285      7.08465         0.359098     -0.271727      0.340204
O       7.65334      1.92594     11.50262        -0.773346      0.364052      0.008104
O       7.73309     13.46456     11.47978        -2.081371     -0.547418      0.376865
O       7.65338      5.77791      2.83786         0.099641      0.017293     -0.369021
O       7.61231      5.75047     15.77782         1.084700      0.143146      0.089097
O       7.67751      5.72822      7.02576        -0.530731      0.328696      0.213349
O       7.72881      5.72126     11.43275        -1.400054      0.246646      0.561910
O       7.54623      9.69430      2.60571         1.296072     -0.362744      0.568775
O       7.65901      9.63268     15.92451         0.272355     -0.394000     -0.481483
O       7.68883      9.52241      7.26285        -0.917220      0.324110     -0.063412
O       7.70237      9.61700     11.51329        -0.207380      0.199385      0.121859
O      11.46937      2.05302      2.76303         1.580030     -0.408200     -0.093039
O      11.47653      2.04097     15.51213         0.922331     -0.608184      0.762026
O      11.48053     13.28816      2.81463         0.159252      0.686279     -0.044387
O      11.51178     13.59099     15.81603         0.836916     -0.570448      0.253749
O      11.47868      1.87352      7.13634         0.084626     -0.315799      0.046948
O      11.48703     13.37396      7.12427        -0.739261      0.283696      0.133135
O      11.50236      2.08302     11.47116         0.900340     -1.253878     -0.387321
O      11.50307     13.46323     11.40759         0.130207      0.004046      0.502634
O      11.52098      5.77329      2.84982        -1.374116      0.110361     -0.077185
O      11.46898      5.55858     15.85896         0.496065      1.669166     -0.563759
O      11.57464      5.65266      7.05756        -0.735628     -0.056390      0.440193
O      11.50372      5.78107     11.25747        -0.305920     -0.052168      1.107377
O      11.45749      9.64576      2.80093        -0.506851     -0.430106     -0.032349
O      11.49877      9.60654     15.76606        -0.226342      0.007417      0.433154
O      11.49859      9.79094      7.32093         0.038519     -1.490521     -1.053650
O      11.49071      9.58104     11.45179         0.379424      0.339162     -0.002868
O       1.95022      3.85910      2.78215        -0.359007      0.433926     -0.564583
O       1.91700      3.87787     15.60710         0.786801     -1.095937      0.904311
O       2.04909     15.33385      2.61562        -0.278776     -0.285788      0.221229
O       1.93965     15.28067     15.83606        -0.086238      1.401701      0.384362
O      13.44676      3.85525      2.75668         0.339594     -0.614315      0.172711
O      13.50336      3.84645     15.73634         0.193133     -0.114143      0.209593
O      13.27003      0.03273      2.61017         0.181763      0.192726      0.596230
O      13.42727      0.08707     15.78918         0.389896     -0.688444     -0.249829
O       1.98029      3.80871      7.11468        -0.012890      0.261167      0.348730
O       2.02966     15.31181      7.06568        -0.110704      1.051226     -0.011899
O      13.41894      3.75058      7.17551         0.716295      0.210896     -0.004097
O      13.47644     15.25751      7.05149        -0.220371      0.689295      0.391947
O       1.95747      3.81763     11.51214         0.510083      0.507456     -0.212777
O       1.87367     15.31792     11.37075        -0.001572      0.033065      0.812204
O      13.44518      3.90970     11.29141         0.083613     -1.521364      0.577633
O      13.43486     15.35940     11.48113         0.092868      0.138470      0.198957
O       1.92294      7.61137      2.61835        -0.293688      0.524297      0.460620
O       2.03952      7.70370     15.83293        -0.804809      0.821702     -0.106106
O      13.40270      7.61982      2.67633        -0.104484      2.169467      0.522149
O      13.36306      7.66126     15.80015         0.270960      0.427436      0.469527
O       1.87579      7.71036      7.11829         0.068806     -0.491627      0.014235
O      13.26248      7.66649      7.04546         0.791881      0.015852      0.382738
O       1.74104      7.80273     11.37625         0.291412     -1.966673      0.296435
O      13.43243      7.67036     11.39877         0.472928      0.842188     -0.078905
O       1.86941     11.51902      2.86400         0.346193     -0.620416     -0.929503
O       1.87682     11.43823     15.87333         0.019362      1.292170      0.383186
O      13.34785     11.52475      2.70339         0.706426      0.248718      0.296731
O      13.40835     11.54119     15.78104        -0.068510      0.114697      0.801172
O       1.84955     11.45272      7.03090         0.895091      0.552251     -0.115768
O      13.40388     11.50892      7.25864         0.449356      0.120915     -0.237367
O       2.07250     11.54542     11.43412        -0.368828     -0.250014     -0.083909
O      13.41621     11.49771     11.29444        -0.327267      0.032334      0.526126
O       5.74220      3.84728      2.74620         0.065405     -0.189820     -0.349802
O       5.74174      3.79006     15.73307        -0.275226      0.114053      0.334430
O       5.79632     15.33284      2.59493        -0.362500      0.510615      0.166827
O       5.87151     15.34302     16.02314        -0.481512     -0.581339     -0.140017
O       5.81924      3.86852      7.11672        -0.014348     -0.592358      0.111813
O       5.75352     15.34531      7.11633        -0.118858     -0.176158     -0.027585
O       5.77348      3.93539     11.52443        -0.706026     -0.869616     -0.497291
O       5.81241     15.33641     11.39160        -0.081027      0.518629      0.553915
O       5.80617      7.71195      2.70231        -0.351138     -0.740767      0.167062
O       5.69589      7.69733     15.74092         0.026436      0.095731      1.039839
O       5.72030      7.59710      7.10342         0.572043      0.827926      0.112957
O       5.87709      7.70395     11.59696        -0.282852     -0.559316     -0.434522
O       5.68855     11.50875      2.72558        -0.086069     -1.773371      1.001938
O       5.66013     11.53124     15.81066         0.496730      0.363906      0.244393
O       5.63825     11.43906      7.19901         0.633588      0.527244     -0.570454
O       5.61815     11.47328     11.48681         0.844960      0.695979      0.596744
O       9.59763      3.83185      2.64249        -0.340190      1.030565      0.491889
O       9.57558      3.84972     15.80300        -0.923503     -0.091123     -0.163289
O       9.72205      0.00304      2.69260        -0.626289     -0.485363      0.077488
O       9.43867      0.01820     15.75069         0.882328      0.042414      0.466884
O       9.60136      3.79296      7.06025        -0.370154      0.081122      0.356128
O       9.54102      0.00509      7.00107         0.121015     -0.537211      0.237651
O       9.61485      3.78903     11.36699        -0.472008      1.477979      0.452361
O       9.58835      0.05844     11.54614         0.333716     -0.874665      0.320827
O       9.56190      7.70253      2.78402        -0.139834     -0.105565      0.240364
O       9.59259      7.67237     15.75647         0.074426     -0.669665     -0.091448
O       9.65913      7.62156      7.12331        -0.148565     -0.035500      0.562645
O       9.58334      7.65892     11.49092        -0.124077      0.188102      0.025557
O       9.54773     11.48978      2.77727        -0.116038     -0.423360     -0.081314
O       9.58586     11.52267     15.75843         0.418255     -0.002384      0.360306
O       9.56526     11.47395      7.32710        -0.663130      1.096912     -0.681055
O       9.55255     11.56599     11.56007         0.037030     -0.551425     -0.269547
