  # total energy = -7866.13408492 
CRSYTAL
PRIMVEC
    15.010000000000000    0.0000000000000000    0.0000000000000000
     0.0000000000000000   15.010000000000000    0.0000000000000000
     0.0000000000000000    0.0000000000000000    16.400000000000000
PRESSURE
19.5155 19.2952 11.2608 0.107641 -0.290929 -0.009268
PRIMCOORD
320 1
Pb       3.83819      3.85079      4.17920        -0.363530     -0.433185     -0.007127
Pb       3.75896      3.71138      0.06933        -0.404143     -0.226229     -0.267182
Pb       3.67072      0.04160      4.07182         0.195454     -0.144816      0.692245
Pb       3.66581     14.92063     16.39956         0.104674      0.409968      0.050687
Pb      14.99671      3.66852      4.02832        -0.387227      0.312236      0.846650
Pb       0.05635      3.67082     16.35832        -0.294997      0.360279      0.087663
Pb       0.03537     14.98300      4.02691        -0.780537      0.336377      1.275698
Pb      14.94465     14.92823      0.08445         0.218123      0.425636     -0.300444
Pb       3.77274      3.78865      8.22009        -0.236405     -0.513930      0.155821
Pb       3.66929     14.91976      8.12552        -0.052787      0.170637      0.507801
Pb      14.97014      3.77640      8.26776         0.086613     -0.040899      0.245069
Pb      14.94603     14.99656      8.16167         0.790433     -0.325766      0.630293
Pb       3.57789      3.76723     12.30159         0.971059     -0.221911     -0.200001
Pb       3.72717     14.97593     12.34461         0.249735     -0.037785     -0.314427
Pb      15.00201      3.66989     12.37560        -0.852196     -0.055202     -0.089951
Pb      15.00108     14.96307     12.38564        -0.492663      0.224227     -0.075031
Pb       3.77385      7.40182      4.05508        -0.518453      0.201989      0.157162
Pb       3.71537      7.38510      0.04916         0.122350      0.408472      0.161046
Pb      14.96772      7.45131      4.11327         0.029689      0.216252      0.229004
Pb      15.00146      7.51942     16.37139        -0.376044     -0.534504      0.322509
Pb       3.75688      7.47557      8.04863        -0.453194     -0.126656      1.433017
Pb      14.94521      7.47925      8.28085         0.467922      0.202644      0.093788
Pb       3.75302      7.62812     12.26783        -0.472404     -0.564927      0.293245
Pb       0.00307      7.43628     12.38930         0.116782      0.332692     -0.273729
Pb       3.73253     11.31527      4.22480         0.098181     -0.618111     -0.439622
Pb       3.76322     11.19656     16.29882         0.180307      0.099417      1.045699
Pb       0.06031     11.27647      4.06263        -0.644933     -0.277492      0.728909
Pb      14.96538     11.25466     16.39937         0.310645     -0.188121      0.401063
Pb       3.85506     11.24131      8.14747        -0.535452      0.172104      0.894497
Pb      14.96602     11.25325      8.26835         0.104326      0.367831     -0.000996
Pb       3.76253     11.34657     12.27090         0.478983     -0.252972      0.537658
Pb       0.01807     11.26582     12.33393        -0.217654     -0.063851      0.131573
Pb       7.50756      3.60280      4.06156        -0.082499      0.743169      0.514355
Pb       7.47816      3.73856     16.32386         0.304114     -0.009549     -0.002234
Pb       7.45179     14.94275      4.06793         0.438765     -0.276207     -0.037818
Pb       7.37834      0.02345      0.01467         0.916853     -0.159987      0.384986
Pb       7.45758      3.72278      8.17824         0.014780     -0.293442      0.241138
Pb       7.57399      0.04459      8.15093        -0.341711     -0.532509      0.625730
Pb       7.46557      3.74048     12.23814        -0.186036     -0.375175      0.757991
Pb       7.51226     14.90206     12.38801        -0.289675      0.753897     -0.130617
Pb       7.46987      7.53586      4.02516         0.415848      0.091170      0.340358
Pb       7.47896      7.55702      0.00251        -0.172099     -0.001829      0.219295
Pb       7.42209      7.54063      8.26797         0.672628      0.170563      0.700342
Pb       7.46236      7.45358     12.33420         0.431571      0.029475     -0.143285
Pb       7.65240     11.30764      4.10273        -0.923154     -0.301401      0.395110
Pb       7.55424     11.21117     16.38684        -0.454163      0.170090      0.854712
Pb       7.51940     11.29160      8.15592         0.265439      0.237430      0.537880
Pb       7.48773     11.17907     12.31838        -0.057305      0.067055     -0.301490
Pb      11.16770      3.75032      4.03272         0.228062      0.031774      0.884899
Pb      11.19921      3.63104     16.34165         0.185205      0.768504      0.477209
Pb      11.24631      0.01201      4.07760         0.134570     -0.057572      0.207410
Pb      11.11428     14.89581      0.08956        -0.174071      0.104244     -0.145108
Pb      11.14022      3.74355      8.10601         0.459450      0.187770      0.699927
Pb      11.18718      0.04852      8.18209         0.125540     -0.674074      0.380803
Pb      11.26986      3.70004     12.38292         0.002397      0.106064     -0.465292
Pb      11.22869      0.08006     12.32730         0.105548     -0.004872      0.043584
Pb      11.30320      7.46176      4.11163        -0.792810     -0.193214      0.826890
Pb      11.25049      7.53211     16.39272         0.379470     -0.362737     -0.061328
Pb      11.19741      7.48329      8.21740         0.249709      0.427681      0.612958
Pb      11.36176      7.51185     12.31258        -0.645498     -0.052545     -0.358476
Pb      11.42094     11.16731      4.10247        -0.633094      0.695104      0.941497
Pb      11.36405     11.15324      0.01680        -0.794316      0.341025     -0.047157
Pb      11.23431     11.16829      8.21832        -0.003571      0.599809      0.173687
Pb      11.27010     11.29841     12.27979        -0.148333     -0.616114      0.075989
Ti       1.86286      1.86630      2.19703         0.367832      0.563150     -1.200476
Ti       1.86918      1.80513     14.42126        -0.201725     -0.078313      1.263913
Ti       1.85077     13.14651      2.07641         0.313305     -1.103115      0.069247
Ti       1.84174     13.07562     14.40600         0.524352      1.600835      0.207913
Ti      13.09022      1.88110      2.13917        -0.292144     -0.875166     -0.188894
Ti      13.10054      1.74203     14.54533         0.181905      0.803112     -0.239914
Ti      13.17567     13.12034      2.18933        -0.916854      0.228844      1.751630
Ti      13.09278     13.10456     14.43043        -0.574160      0.326012     -1.021439
Ti       1.79639      1.91662      6.27033         0.843294     -1.174773      0.018285
Ti       1.87357     13.05838      6.18506        -0.620859      0.980853      2.447863
Ti      13.12170      1.91405      6.23652         0.647462     -0.725457      1.034901
Ti      13.17753     13.12911      6.19248         0.526130      0.724144     -0.180678
Ti       1.77398      1.82624     10.42950         0.646519      0.090017     -0.730249
Ti       1.77930     13.11197     10.39206         0.944344      0.965401     -1.069120
Ti      13.08613      1.79849     10.21893         0.037828      1.358130      1.906236
Ti      13.09560     13.16359     10.38695        -1.009375     -0.057655     -0.889564
Ti       1.76987      5.60566      2.15997         0.657637      0.576628     -0.636972
Ti       1.91372      5.62557     14.39117        -1.225018     -0.263011      1.775292
Ti      13.05431      5.56683      2.19039        -0.757333      0.592238     -1.605115
Ti      13.12155      5.52292     14.43552        -0.019241      0.785252      1.668162
Ti       1.82783      5.58500      6.22227         0.524019      0.738037      0.210237
Ti      13.15591      5.64589      6.25407        -0.788534     -1.232712     -1.136793
Ti       1.73765      5.68251     10.34294         1.757808      0.359077      0.495484
Ti      13.07952      5.62366     10.36367        -0.560198     -1.030177     -0.557442
Ti       1.82256      9.37013      2.24662         0.277063     -0.194416     -1.042123
Ti       1.85589      9.39047     14.51714         0.392406     -0.886688     -1.601790
Ti      13.06073      9.30444      2.17336         1.270811      0.197934     -0.665954
Ti      13.16852      9.41196     14.33443        -1.493558     -2.389263      0.779152
Ti       1.82676      9.35476      6.22130        -0.134576     -0.131017     -0.596529
Ti      13.14730      9.41096      6.29685        -0.695962     -0.198002      0.700157
Ti       1.85827      9.47053     10.36339         0.952109     -1.909511     -1.035753
Ti      13.24546      9.40333     10.34022        -2.180095     -0.342411     -0.181730
Ti       5.55832      1.81134      2.13561        -0.478384     -0.070607      0.346247
Ti       5.58653      1.82746     14.45617        -0.242880      0.732160     -0.182478
Ti       5.54177     13.07283      2.20711         1.204457     -1.395598     -0.483021
Ti       5.65697     13.14799     14.54406        -1.511359     -0.741483     -0.880472
Ti       5.57096      1.76273      6.19947         0.112144      0.922576     -0.127645
Ti       5.66925     13.10336      6.18513         0.488924      0.378712     -0.471401
Ti       5.59976      1.78455     10.36609        -0.604310      0.474226      0.625477
Ti       5.63997     13.12750     10.36019        -0.469185     -0.250537     -0.735123
Ti       5.68704      5.57219      2.12080        -0.928893      0.160272     -0.831151
Ti       5.63806      5.57903     14.44224        -0.342679      1.275955     -0.308663
Ti       5.69268      5.55217      6.26633        -0.265804      0.486899     -0.605676
Ti       5.54757      5.59698     10.40311        -0.343225     -0.701334      0.355558
Ti       5.49508      9.34985      2.18473         1.826597      0.564093     -1.276327
Ti       5.57900      9.39423     14.39901         0.176917     -0.819639      0.547809
Ti       5.56997      9.38378      6.22449         1.041779     -0.605294      1.821608
Ti       5.64898      9.30035     10.32552        -0.845205      2.018357     -0.850425
Ti       9.29472      1.85546      2.10932         1.266281     -0.514811     -0.419053
Ti       9.39215      1.88799     14.41229        -1.224961     -1.019836     -0.564822
Ti       9.42838     13.09333      2.14140        -0.215474      0.786487      0.126437
Ti       9.31558     13.11638     14.36831         0.788822      0.854633      0.716526
Ti       9.38307      1.92324      6.17957        -0.345618     -0.801610     -0.481388
Ti       9.46589     13.17437      6.25299         0.247531     -1.027718      0.176360
Ti       9.30765      1.88379     10.37082         0.944816     -0.408693      0.129538
Ti       9.35292     13.13330     10.45136         0.150318      0.281491     -1.348412
Ti       9.33613      5.61224      2.08747         0.127967      0.811023     -0.444941
Ti       9.39348      5.68966     14.41455        -0.147930     -0.438797      0.570497
Ti       9.38201      5.72475      6.25278         0.236196     -1.346374     -0.410670
Ti       9.30076      5.58570     10.31957         0.891658      1.185670      1.013286
Ti       9.42484      9.40244      2.21153        -1.568858     -0.592562     -0.624913
Ti       9.33880      9.42603     14.47230         1.046228      0.231938     -1.567072
Ti       9.31985      9.35635      6.22035         0.899071      0.626824     -1.050011
Ti       9.41822      9.39707     10.35568        -0.128598     -0.723680      0.786347
O       2.01870      1.84752      0.38359        -0.437729      0.333988     -0.022636
O       1.74096      1.72322     12.66848         0.336737      0.421815     -0.757830
O       1.83164     13.14221      0.27554        -0.177609     -0.278845      0.346487
O       1.85922     13.07962     12.61814        -0.236012      0.344443     -0.557673
O      12.97184      1.92414      0.34344         0.488376     -0.430915      0.268166
O      13.07553      1.69393     12.77760         0.011357      0.355618     -0.317264
O      13.25701     13.15010      0.46543        -0.335856     -0.313859     -2.681148
O      13.12692     13.08051     12.59178        -0.162046      0.040440      1.537424
O       1.71715      1.83589      4.47428         0.387855      0.349670     -0.646384
O       1.76165     13.14460      4.47738         0.230558     -0.106735     -2.183970
O      13.22499      1.85910      4.51378        -0.148301      0.151849     -2.001928
O      13.18809     13.12674      4.38735         0.037014     -0.350889      0.196320
O       1.77856      1.82238      8.63593         0.379188      0.299716     -0.284121
O       1.74710     13.06467      8.58682         0.369142     -0.172839     -0.321351
O      13.17279      1.80785      8.44088        -0.333817      0.256811      0.399025
O      13.12469     13.13969      8.58878        -0.074904      0.262833     -0.449812
O       1.77624      5.65079      0.33724         0.023985     -0.394839      0.403463
O       1.77448      5.72413     12.65237         0.184655     -0.121724     -0.924739
O      13.02207      5.70886      0.36922         0.261376     -0.614435      0.613390
O      13.09896      5.52965     12.68587        -0.018613      0.620185     -1.518714
O       1.79151      5.60646      4.42384         0.235262      0.163169     -0.426069
O      12.98129      5.59234      4.38867         0.491419      0.337291      1.292230
O       1.75013      5.67028      8.56208         0.283980     -0.540573     -0.317864
O      13.16614      5.53230      8.53069        -0.025856      0.213381      0.220540
O       1.83579      9.34127      0.40368         0.211382      0.416245     -0.604656
O       1.83160      9.35118     12.64961        -0.157372     -0.067758      1.061879
O      12.88897      9.34772      0.36937         0.994345      0.122416      0.184926
O      13.22710      9.43983     12.55723        -0.449323     -0.330856     -0.121975
O       1.89757      9.28692      4.36607        -0.404159      0.205215      0.913349
O      13.02086      9.42222      4.54411         0.512605     -0.411476     -1.558688
O       1.79563      9.38427      8.53298         0.056834      0.493484      0.203025
O      13.18769      9.30678      8.50096        -0.343730      0.304480     -0.268937
O       5.46004      1.84020      0.36361         0.214952      0.443101     -0.159291
O       5.57459      1.77457     12.71803        -0.083642      0.067045     -1.206211
O       5.50956     13.07776      0.40147         0.222194     -0.142387     -0.298921
O       5.62581     13.07479     12.72751         0.024982      0.238482     -0.057968
O       5.57769      1.93752      4.40352         0.258681     -0.615489     -0.330326
O       5.73924     13.15304      4.36359        -0.579934     -0.316294      0.445239
O       5.51840      1.82113      8.60009         0.196300     -0.174241     -1.058453
O       5.63614     13.13554      8.54917         0.112168      0.033825     -0.536103
O       5.86608      5.70030      0.25404        -1.061235     -0.600869      1.290171
O       5.46203      5.66338     12.65357         0.689103     -0.151419     -0.312531
O       5.53707      5.60179      4.43190         0.388445     -0.032142      0.532862
O       5.53289      5.55634      8.60970         0.515517     -0.122481     -1.006661
O       5.50893      9.30904      0.34698        -0.089334      0.174174      0.451721
O       5.57872      9.39646     12.60520         0.251075     -0.011296     -0.464924
O       5.54371      9.33348      4.50070         0.202581     -0.185908     -1.227492
O       5.54138      9.42914      8.48097         0.346449     -0.077888      0.829424
O       9.39786      1.81343      0.29031        -0.244603      0.109257      0.091998
O       9.30911      1.73633     12.56901         0.277035      0.702435      0.826799
O       9.30492     13.12424      0.36333         0.375598     -0.131027     -0.018779
O       9.19333     13.08029     12.57664         0.547267      0.136661      0.242697
O       9.44181      1.87979      4.34126        -0.840566     -0.084706      0.879659
O       9.41852     13.18344      4.49303        -0.037272      0.047922     -0.819624
O       9.32958      1.90020      8.55138        -0.034708      0.002017     -0.626088
O       9.39272     13.14916      8.62803         0.054864     -0.117710     -0.995649
O       9.22906      5.50200      0.28845         0.165563      0.580661      0.214847
O       9.27889      5.61347     12.64730         0.552146      0.340182     -0.304210
O       9.31758      5.67666      4.49536         0.357876     -0.033421     -0.868021
O       9.16847      5.48387      8.55128         0.609997      0.361310     -0.979285
O       9.56840      9.46463      0.38092        -0.660788      0.453906     -0.173071
O       9.33448      9.45151     12.60753        -0.069081     -0.394228      1.088853
O       9.37865      9.28163      4.37125        -0.433381      0.243251      1.074239
O       9.49461      9.40991      8.58224        -0.504013      0.048518     -1.119922
O       3.69710      1.92834      2.57570         0.056098     -0.196842     -0.058088
O       3.70609      1.89986     14.76135        -0.050687      0.013912     -0.085849
O       3.67682     13.05168      2.60241        -0.501097      0.152540     -0.409010
O       3.72558     13.11343     14.62830        -0.187621     -0.033958      0.582545
O       0.00574      1.90191      2.28601        -1.144857     -0.244740      0.305886
O      14.94898      1.83912     14.83171         0.777481     -0.495971      0.146445
O      14.99504     13.21474      2.44030         1.463751     -0.440109     -0.102059
O      14.95696     13.23806     14.70810        -0.189798     -0.284524      0.257170
O       3.76139      1.74244      6.49592        -1.487639      0.096964      0.289234
O       3.80600     13.13359      6.43933        -1.113185     -0.028562      0.175348
O       0.02732      2.10583      6.65608        -1.127947     -0.185100     -0.469906
O       0.00406     12.75204      6.53069         0.443224      0.919687     -0.168583
O       3.67757      1.83705     10.76121        -0.061760     -0.100759     -0.180767
O       3.72061     13.22196     10.50132        -0.524383      0.086816      0.791614
O      14.90814      1.81173     10.81544        -0.343716      0.565230     -0.637930
O      14.89072     13.10010     10.63423         2.140630     -0.266881      0.490113
O       3.72132      5.56382      2.39121         0.070126      0.079204     -0.209283
O       3.69841      5.56314     14.82141         0.849658     -0.062152      0.024241
O      14.84101      5.72530      2.49536         1.943241     -0.157040     -0.206128
O      14.93365      5.71229     14.77377         1.704063     -0.204333     -0.132950
O       3.75731      5.63171      6.51457        -0.260780      0.689848     -0.012292
O      14.99861      5.44064      6.47134        -0.244071     -0.369322      0.232233
O       3.69963      5.63417     10.75100        -0.901894     -0.160751     -0.595580
O      14.94814      5.65538     10.69320        -0.379616     -0.216261      0.206401
O       3.69654      9.43610      2.51251        -0.401022     -0.514604      0.052804
O       3.71110      9.52928     14.65313         0.106153     -0.383591      0.204632
O      14.96038      9.21484      2.43299        -0.916212      0.201266      0.181145
O      14.98214      9.41608     14.79024         0.352088     -0.491029      0.073030
O       3.69897      9.18157      6.51820         0.842158      0.613758     -0.308548
O      15.00202      9.59112      6.45015        -0.248212     -0.205791      0.143730
O       3.73267      9.22075     10.58052        -0.157535      0.782329      0.061454
O      14.99782      9.29299     10.68750         0.837433      0.703785     -0.014053
O       7.44837      1.81231      2.28702        -0.808754      0.001345      0.557634
O       7.43529      1.79190     14.67586         1.034729      0.333056      0.688806
O       7.55025     13.11242      2.45824        -1.352384      0.036050      0.022296
O       7.44898     13.14958     14.78921         0.874806      0.126679      0.274627
O       7.45754      1.91001      6.44106         0.590075     -0.098484      0.264120
O       7.54894     13.06027      6.42561        -0.025944      0.071366      0.609229
O       7.49247      1.95700     10.63802        -0.940471     -0.075947     -0.109156
O       7.47670     13.20255     10.64041        -0.350403     -0.972695      0.103688
O       7.47172      5.61137      2.53763         0.221882     -0.232164     -0.088649
O       7.49822      5.76923     14.64398         0.129262     -0.504052     -0.017692
O       7.54991      5.42814      6.43149        -1.832445      0.019037      0.510107
O       7.45467      5.50952     10.72295        -0.431321      0.509394     -0.182462
O       7.45349      9.35341      2.44462         0.234606      0.356169     -0.075521
O       7.46038      9.41612     14.81574         0.330257     -0.096547     -0.285592
O       7.53529      9.48437      6.63705        -1.272251     -0.093344     -0.299897
O       7.47454      9.31210     10.62641         0.159748      0.859955     -0.067811
O      11.19798      1.81970      2.36643         0.286839      0.175447      0.291437
O      11.20865      1.92109     14.65124        -0.140379     -0.344172      0.264382
O      11.34353     13.30641      2.44862        -1.786840     -0.935234     -0.280352
O      11.18925     13.07482     14.71968         0.577769     -0.348364     -0.053465
O      11.24926      1.77596      6.54895        -0.482377     -0.498801     -0.164616
O      11.37851     13.36015      6.50745        -1.673531      0.065741      0.230443
O      11.24514      1.85772     10.70365        -0.213489     -0.543490     -0.375006
O      11.21537     13.03392     10.72810         0.326012      0.912288      0.023478
O      11.14046      5.51665      2.51507         0.109708      0.550963     -0.494859
O      11.26486      5.62868     14.71473        -1.358936     -0.034728     -0.039891
O      11.29679      5.70976      6.63975        -1.564652      0.309734     -0.130772
O      11.23397      5.71827     10.66111        -0.932384     -0.152475      0.022389
O      11.25445      9.38783      2.57402        -0.476011      0.413436     -0.177698
O      11.24753      9.50536     14.75255         0.079841     -0.003276     -0.676750
O      11.17424      9.21532      6.48017         1.205487     -0.316638      0.613086
O      11.27463      9.35196     10.63511         0.344686      0.147971      0.296131
O       1.67774      3.75982      2.34854         0.589009      0.077847      0.292729
O       1.80171      3.69427     14.57694        -0.238804      1.066755      0.551421
O       1.83955     14.99097      2.45127         0.480796     -0.025269     -0.247741
O       1.86267     14.98700     14.76012        -0.030962     -0.418823      0.101087
O      13.02851      3.72161      2.56345         0.506236     -0.336934     -0.593665
O      13.09939      3.67959     14.75975         0.127747      0.266424      0.046262
O      13.16375      0.01517      2.58720         0.065642      0.812287     -0.900915
O      12.89694     14.92912     14.92375         0.902401     -0.224447     -0.327362
O       1.96634      3.75218      6.54985         0.405726      0.055380      0.272271
O       1.73993     14.98715      6.54099         0.023688     -0.306234      0.013566
O      12.85992      3.73327      6.47031         0.855481      0.513965      0.227422
O      13.48960     15.00201      6.46404        -0.814820      0.049682     -0.355706
O       1.67821      3.73903     10.73419         0.750325      0.408151     -0.156811
O       1.71351     14.97575     10.68325         0.323199     -0.303350      0.122728
O      12.94948      3.73065     10.78207         1.181671     -0.681094     -0.828845
O      13.11830      0.02833     10.79556        -0.428845     -0.609975     -0.831720
O       1.90054      7.47764      2.38906        -0.059196     -0.317776      0.410184
O       1.98309      7.50358     14.83383        -0.683403      0.253302     -0.523276
O      12.88969      7.48616      2.49095         0.669805     -0.337788     -0.229016
O      13.03794      7.51423     14.72321         0.196375      0.635765     -0.447789
O       1.69235      7.47987      6.59463         0.109248     -0.152604     -0.462969
O      13.34083      7.45210      6.49136        -0.406526      1.274273      0.065331
O       1.76187      7.57305     10.63142         0.131823     -1.317197      0.197750
O      13.08158      7.47733     10.52667         0.312806      0.651726      0.737719
O       1.69535     11.25544      2.41833         0.442362      0.564743     -0.086904
O       1.79932     11.28352     14.63966        -0.449060     -0.901708      0.785783
O      13.12224     11.21315      2.43930         0.252561      0.145335     -0.142723
O      13.20227     11.20418     14.69354        -0.105728      1.846448      0.582406
O       2.01499     11.22242      6.37403         0.565153     -0.741832      0.407729
O      12.94142     11.30532      6.50235        -0.319013     -1.654425      0.344741
O       1.95132     11.26225     10.79239        -0.714053      0.112694     -0.626791
O      13.14502     11.25788     10.55409        -0.133957     -0.637134      0.259893
O       5.52701      3.68366      2.44961         0.739896      0.874324     -0.391726
O       5.62982      3.75341     14.63557         0.087958     -0.322141      0.701771
O       5.45669     14.90432      2.37147         0.334589      1.718319      0.424870
O       5.57748      0.01511     14.95078        -0.386796     -1.148839     -0.663974
O       5.43990      3.70106      6.48846         0.522044      0.236311      0.370757
O       5.59957     14.93701      6.44012         0.617917      0.507482      0.383715
O       5.57361      3.67990     10.67117        -0.340549      0.519933      0.204883
O       5.66153     14.96937     10.81925        -0.320499      0.630087     -0.416239
O       5.65029      7.45393      2.44446        -0.699789     -0.277517      0.071271
O       5.57982      7.53116     14.64824        -0.362614      0.015929      0.331765
O       5.80248      7.49955      6.73412        -0.856237     -0.601260     -1.572187
O       5.65219      7.49998     10.57167         0.046510     -1.223650      0.336464
O       5.48624     11.18180      2.50779         0.705104      0.920622      0.062901
O       5.63471     11.24272     14.84104         0.121118      0.429572     -0.169460
O       5.63945     11.26156      6.57496        -0.562187     -0.827144     -0.441655
O       5.47195     11.26860     10.62074         0.591351     -0.698540     -0.034706
O       9.30245      3.75382      2.38357        -0.337546     -0.806032      0.162982
O       9.37114      3.72392     14.75062        -0.692341      0.798373     -0.404495
O       9.32891     14.98372      2.50521         0.038262      0.269987     -0.317799
O       9.33363     14.97714     14.71944         0.205631      0.311913      0.149517
O       9.38101      3.72782      6.45113         0.619345      0.138838      0.262144
O       9.31560     14.99830      6.62778         0.054918      1.076877     -0.339546
O       9.44089      3.76722     10.62872        -0.099979     -0.552204      0.452313
O       9.21599      0.01274     10.57758         0.808188      0.027207      0.262318
O       9.34939      7.55205      2.30039         0.025097     -1.587582      0.267320
O       9.38111      7.60564     14.75834         0.101069     -1.254533     -0.159967
O       9.14614      7.48800      6.59208         0.419556      0.559082      0.341429
O       9.28926      7.51030     10.53076         0.084055     -0.638227      0.521470
O       9.30227     11.26137      2.57753         1.212561      0.264818     -0.701484
O       9.28521     11.32318     14.69707        -0.204833     -1.132185      0.376743
O       9.53287     11.25341      6.48647        -0.087155      0.217621      0.183865
O       9.37491     11.28156     10.66278        -0.529435     -1.062985      0.036070
