  # total energy = -7881.54842056 
CRSYTAL
PRIMVEC
    15.3600000000000000    0.0000000000000000    0.0000000000000000
     0.0000000000000000   15.3600000000000000    0.0000000000000000
     0.0000000000000000    0.0000000000000000    17.440000000000000
PRESSURE
1.34327 1.66511 -2.23202 0.233271 0.215117 -0.026568
PRIMCOORD
320 1
Pb       3.77946      3.87020      4.22300        -0.052484     -0.405178      0.657184
Pb       3.77406      3.88440     17.33667         0.245448     -0.184456     -0.108773
Pb       3.83664      0.01567      4.22845         0.443402     -0.017172     -0.077710
Pb       3.94074      0.08098      0.02270        -0.473538     -0.399456      0.615172
Pb      15.22210      3.88854      4.28282         0.501843      0.002039      0.726093
Pb      15.22127      3.78856     17.40063         0.361056     -0.006520      0.000673
Pb      15.22512     15.29099      4.30100        -0.066683      0.323280      0.519230
Pb       0.02365     15.33169      0.01981         0.036996      0.017003     -0.396588
Pb       3.89532      3.86004      8.62093         0.118699     -0.394164      0.638200
Pb       3.77938     15.26037      8.78647         0.416676      0.421082     -0.072459
Pb       0.12173      3.67013      8.66371        -0.098192      0.132121     -0.128522
Pb       0.14201     15.32547      8.59354        -0.423502      0.371413      0.714060
Pb       3.78678      3.92923     13.08591         0.009461     -0.384579     -0.524463
Pb       3.94147     15.27502     13.25093        -0.359270      0.528197     -1.093379
Pb      15.24135      3.84498     12.99498         0.251952      0.201534      0.151353
Pb      15.35668      0.05202     12.99681        -0.213562     -0.506463      0.101414
Pb       3.81627      7.63464      4.26882        -0.219282      0.140508      0.722158
Pb       3.81538      7.77046      0.00962        -0.085461     -0.305824     -0.352911
Pb      15.23169      7.48297      4.32556         0.238879      0.254605     -0.086629
Pb       0.10848      7.70609     17.38664        -0.631481      0.070458      0.075510
Pb       3.86504      7.53457      8.71891         0.037507      0.629757      0.244414
Pb      15.34052      7.65894      8.71102         0.174203      0.032121     -0.066338
Pb       3.78959      7.80321     13.08244         0.371631     -0.205683     -0.375905
Pb       0.02714      7.72299     12.90729        -0.762043     -0.365519      0.816802
Pb       3.80092     11.42785      4.30832         0.127121      0.255555      0.142813
Pb       3.78277     11.40496     17.42593        -0.025393      0.611518      0.265536
Pb       0.00259     11.45145      4.27015        -0.695004      0.067266      0.126604
Pb       0.06628     11.40407      0.03521        -0.499631      0.399969      0.134870
Pb       3.70410     11.51065      8.68760         0.459134      0.206062     -0.160282
Pb       0.06585     11.52319      8.60976        -0.118904     -0.021738      0.494912
Pb       3.75309     11.56783     13.02312         0.326359     -0.197953      0.046865
Pb      15.17305     11.41990     13.08867         0.055350      0.581063      0.060148
Pb       7.60653      3.90949      4.34240        -0.001873     -0.166973     -0.377825
Pb       7.69771      3.85968     17.27824        -0.309166     -0.033543      0.682197
Pb       7.60736      0.04510      4.17997         0.067489     -0.059607      0.495536
Pb       7.78610     15.29732     17.43372        -0.319174      0.312034      0.525446
Pb       7.69993      3.70241      8.73247        -0.089473      0.345151     -0.036935
Pb       7.65718     15.32337      8.64914         0.066272      0.109602      0.465266
Pb       7.50995      3.68766     13.08425         0.482104      0.743669      0.576225
Pb       7.67239     15.11165     13.16414         0.020909      0.629980     -0.346377
Pb       7.57041      7.73289      4.33238         0.298103      0.256666     -0.009309
Pb       7.79943      7.52323     17.39018        -0.070392      0.248676      0.035326
Pb       7.56251      7.66872      8.67927         0.346579     -0.485318      0.445110
Pb       7.63988      7.61101     12.99507         0.584255     -0.198423      0.921606
Pb       7.67080     11.52923      4.27092         0.199111     -0.711371      0.512484
Pb       7.71856     11.46614     17.41574         0.136588     -0.092477     -0.147739
Pb       7.71571     11.38235      8.75338        -0.647499      0.653235      0.385521
Pb       7.58311     11.45889     13.10584         0.213512      0.414436     -0.355848
Pb      11.52241      3.88066      4.39475         0.149415     -0.527326      0.298103
Pb      11.31323      3.80157     17.28225         0.928360     -0.045919      0.671255
Pb      11.41376      0.13752      4.25844         0.532296     -0.120885      1.127474
Pb      11.70284      0.02224     17.30587        -0.303788     -0.045030      0.268632
Pb      11.63241      3.75186      8.73512        -0.138218      0.003547     -0.517769
Pb      11.49059     15.23046      8.62570         0.128580      0.610574     -0.190989
Pb      11.42206      3.90036     12.95921         0.725326     -0.099565      1.060296
Pb      11.44852     15.28826     13.03701         0.560080      0.505625      0.237849
Pb      11.50001      7.72047      4.34619        -0.181188      0.461044      0.556345
Pb      11.47627      7.61685     17.36775         0.117544      0.270943      0.012460
Pb      11.42758      7.57980      8.68942         0.254882      0.045135      0.201119
Pb      11.61531      7.74816     12.86690        -0.297771     -0.750641      1.292665
Pb      11.40989     11.54765      4.41714         0.384552     -0.714934      0.255324
Pb      11.65092     11.56498     17.43722        -0.585978     -0.369615      0.200358
Pb      11.37696     11.52115      8.75754         0.433020      0.106611     -0.129360
Pb      11.38043     11.50652     13.00217         0.070983      0.237143      0.581943
Ti       1.84747      1.89355      2.39075         0.450914      0.405236     -1.268707
Ti       1.94515      1.82752     15.38861        -0.367406      0.648088     -0.617785
Ti       1.94178     13.43124      2.30431        -0.258243     -0.404269     -0.468211
Ti       1.92913     13.40818     15.53165        -1.382680     -0.504161     -0.018045
Ti      13.40877      1.93948      2.32593         0.435213      0.826276     -0.229730
Ti      13.48426      1.96306     15.36575        -0.054530     -0.205076     -0.263207
Ti      13.34748     13.45386      2.32702         1.340101     -0.626654     -0.342815
Ti      13.46831     13.42851     15.37976         0.677447      0.087033     -0.056467
Ti       2.09339      1.93755      6.64578        -0.626773      0.729891      0.022908
Ti       1.92229     13.51729      6.56131         1.290202     -0.524208      0.463588
Ti      13.49913      1.83222      6.76592        -0.451364      0.926711     -2.116023
Ti      13.46014     13.36526      6.74092        -0.868962      0.584334     -1.095300
Ti       1.99628      1.88729     11.13920         0.319968     -0.225919     -0.899684
Ti       1.83829     13.41163     11.04296         0.123677      0.861911     -0.581401
Ti      13.45430      1.93509     11.03155         0.417314     -0.391305     -1.040269
Ti      13.37341     13.44608     10.93806         1.781393      0.529951      0.173773
Ti       1.95425      5.75078      2.18648        -1.857347     -0.306003      1.288030
Ti       1.86838      5.72741     15.32217        -0.025265      0.316245      0.065202
Ti      13.33312      5.75604      2.28065         0.948686      0.115995     -0.005938
Ti      13.49223      5.76403     15.41830        -0.941799      0.419032     -1.263764
Ti       1.93874      5.84871      6.79175        -0.206189     -1.324900     -1.173595
Ti      13.43505      5.76335      6.80306         0.163101     -0.575035     -0.575798
Ti       1.92468      5.78699     11.03772         0.043381     -0.291981     -1.027146
Ti      13.39208      5.79061     10.93277         0.858325     -0.669318     -1.378147
Ti       1.80514      9.54144      2.35359        -0.550630     -0.286193     -0.223583
Ti       1.85722      9.60805     15.35243        -0.184347      0.001485      0.828334
Ti      13.33051      9.62284      2.32676         0.007895      0.124425     -1.022984
Ti      13.37050      9.63152     15.48022         0.185689     -0.476289     -0.503651
Ti       1.85643      9.60333      6.62060         0.057154     -0.164955     -0.141814
Ti      13.38707      9.60911      6.78369        -0.380744      0.296204     -0.984884
Ti       1.84038      9.65997     10.95614         0.632999     -0.887577     -0.749165
Ti      13.38064      9.68317     10.91475         0.631383     -0.830214     -1.122386
Ti       5.77823      1.93931      2.24077         0.045344      0.244364     -1.018983
Ti       5.80001      1.85142     15.49227         0.740905      0.830551      0.084910
Ti       5.83225     13.32244      2.34445        -0.251283      0.782744     -0.851671
Ti       5.72492     13.41592     15.53138         0.308150     -0.488619      0.321355
Ti       5.84648      1.83471      6.65549        -0.660281      0.638326      0.241545
Ti       5.77315     13.38614      6.69054        -0.207336      0.405205      0.108873
Ti       5.80230      1.92798     11.02855        -1.235644     -0.345231     -0.436699
Ti       5.65709     13.51183     11.03449         1.093643     -0.920308      0.060400
Ti       5.68936      5.75590      2.33340         1.612089     -0.136806     -1.064786
Ti       5.68311      5.79804     15.41961         0.985939     -0.155970     -1.229474
Ti       5.81104      5.70436      6.66330        -0.170055      0.075029      0.053549
Ti       5.77004      5.81093     11.05446         0.382806     -0.378239     -0.530382
Ti       5.62327      9.57694      2.28425         1.500206     -0.486507     -0.121841
Ti       5.70793      9.59364     15.46600         0.408375     -0.020127     -0.825877
Ti       5.65828      9.59157      6.75742         0.691869     -0.526654     -1.429234
Ti       5.76682      9.59723     11.10025        -0.689707      1.358808     -0.116715
Ti       9.64128      1.88262      2.26774        -0.182813      1.420627     -0.712857
Ti       9.60049      1.85621     15.40041         0.002638      1.231759     -1.710593
Ti       9.66223     13.38744      2.33893        -0.089468     -0.375588     -1.458085
Ti       9.63791     13.44643     15.50961         0.113810     -0.782807     -1.521211
Ti       9.62356      1.95548      6.62003         0.710975     -0.372698     -0.857170
Ti       9.52454     13.46328      6.71231         1.015314     -0.327674     -0.409938
Ti       9.59180      1.95542     11.10074        -0.410846     -0.353178     -0.108386
Ti       9.63545     13.53418     11.04640        -1.732957     -0.914620     -0.335674
Ti       9.58762      5.72025      2.42651        -0.536443     -0.223716     -1.071436
Ti       9.64614      5.67550     15.35143        -0.304710      0.332147     -2.318155
Ti       9.56668      5.72230      6.65382         0.275476      0.355963      0.202899
Ti       9.55596      5.66961     11.00317        -0.434473      1.471270      1.583448
Ti       9.54963      9.50632      2.29684         0.060457      0.719063     -1.404015
Ti       9.55952      9.55378     15.41447         0.594860      0.226209     -0.343459
Ti       9.60103      9.56814      6.91915        -0.496460      0.036666     -3.029295
Ti       9.57078      9.57589     11.11513        -0.449569     -0.165660     -0.528028
O       1.73529      1.89460      0.59330         0.502089      0.203270      0.618752
O       2.10572      1.87899     13.59136        -0.363575     -0.398204      1.042312
O       1.77837     13.32024      0.50497         0.459388      0.348979      1.656264
O       2.00072     13.29248     13.79790         0.029726      0.362327     -1.047820
O      13.58972      2.04935      0.51972        -0.582104     -0.490109      0.606841
O      13.55608      1.96766     13.63636         0.008556     -0.389114     -0.860675
O      13.32541     13.49261      0.52633         0.061096      0.114800      1.181704
O      13.50627     13.32586     13.60638        -0.424908      0.023339      0.444616
O       2.10698      1.98148      4.87529         0.110099     -0.389455      0.058900
O       1.89029     13.49773      4.79249         0.236912      0.016187      0.173550
O      13.33513      1.99378      4.91383         0.377998     -0.483893      1.171718
O      13.40024     13.32192      4.91078         0.367176      0.345423      1.397044
O       2.00501      1.88851      9.32070        -0.305337      0.243347      0.827843
O       1.91529     13.39688      9.22757         0.076275      0.113574      1.145110
O      13.49244      1.82425      9.19380        -0.087460      0.293160      1.345936
O      13.45843     13.57016      9.15735        -0.151702     -0.230263      0.865687
O       1.88730      5.80565      0.45909         0.214121     -0.328468     -0.340140
O       1.82945      5.72702     13.53369         0.426161      0.546240      0.697504
O      13.43853      5.69943      0.52785        -0.340512      0.052392      0.034002
O      13.42365      5.82021     13.63403         0.156469     -0.006883      0.791645
O       1.86103      5.71929      5.00515         0.189075      0.350141      0.337034
O      13.63245      5.70426      4.92959        -0.712288      0.077697      1.666059
O       2.04039      5.98119      9.17683        -0.598187     -0.869456      1.674840
O      13.27975      5.81381      9.04890         0.728961     -0.143713      1.729184
O       1.71808      9.60784      0.55300         0.859701     -0.113263      0.957196
O       1.80038      9.65519     13.59860         0.180127     -0.189860     -0.720528
O      13.29737      9.66217      0.50737         0.137395     -0.271578      0.981869
O      13.42523      9.66693     13.66086         0.080200      0.155963      0.403768
O       1.78401      9.54857      4.82608         0.292892      0.174009      0.755539
O      13.30390      9.67961      4.97762         0.335766      0.062333      0.932696
O       1.81398      9.59619      9.12300         0.192716      0.087763      1.984280
O      13.34916      9.49776      9.12914         0.295182      0.202851      1.161419
O       5.91999      2.00610      0.41665        -1.008664     -0.110082      1.541430
O       5.80594      1.79306     13.70672        -0.323411      0.024696      0.572449
O       5.96802     13.24784      0.57986        -0.429518      0.245325      0.047664
O       5.70216     13.55409     13.76082        -0.116606     -0.156594      0.237501
O       5.73835      1.93001      4.86927         0.301926     -0.271636      0.490994
O       5.85941     13.50979      4.93163        -0.209823     -0.326808     -0.029651
O       5.83170      1.82311      9.25113         0.276432      0.322913      0.671644
O       5.56488     13.42389      9.29221         0.368132      0.003783     -0.456323
O       5.80689      5.72875      0.54849        -0.378976     -0.023795      0.247818
O       5.75700      5.77393     13.58543        -0.463883      0.245937      1.786057
O       5.79660      5.68466      4.86294        -0.111996      0.355178      0.472933
O       5.90668      5.89336      9.25321        -0.638076     -0.261673      0.864500
O       5.60740      9.63821      0.50483         0.077447      0.013472      0.258383
O       5.75364      9.53988     13.67193        -0.159875      0.337377      0.684158
O       5.75191      9.49721      4.91039        -0.155789      0.236708      1.463199
O       5.72632      9.70695      9.34295         0.100375     -0.550772     -0.214710
O       9.85514      1.89206      0.45727        -0.783365     -0.003964      1.268480
O       9.47346      1.97226     13.58603         0.375100     -0.433658      0.639201
O       9.76537     13.42089      0.50387        -0.643045      0.144072      1.498678
O       9.66929     13.48584     13.63379         0.056132      0.220718      1.225942
O       9.73827      2.04939      4.79578        -0.640063     -0.503941      1.165940
O       9.66057     13.47232      4.95721        -0.308947     -0.528120     -0.742952
O       9.40632      1.79706      9.34913         0.521443      0.402785      0.488383
O       9.60624     13.46495      9.26002         0.145959      0.373529      0.718404
O       9.62541      5.80346      0.60540        -0.080972     -0.055260      0.458476
O       9.73014      5.47293     13.55028        -0.488139      1.167631      1.045945
O       9.71414      5.85110      4.87284        -0.813760     -0.500789      0.786250
O       9.47867      5.72814      9.30487         0.348988     -0.067313     -1.412967
O       9.60530      9.35938      0.44720        -0.144805      0.606405      1.605342
O       9.55416      9.70528     13.61319         0.220814     -0.232331      0.221494
O       9.62009      9.52947      5.06257        -0.399034      0.321795      1.052322
O       9.67705      9.62596      9.32441        -0.545759     -0.070939      0.795669
O       3.87795      2.01256      2.67096        -0.191755     -0.690139     -0.198690
O       3.90073      1.80314     15.95693        -0.524660      0.728932     -0.551905
O       3.98061     13.37090      2.72054        -1.821128      0.252253     -0.111875
O       3.74135     13.49229     15.98566         2.404942     -0.315998     -0.057319
O      15.33392      1.83821      2.83703         0.115635      0.114894     -0.316971
O       0.06939      1.99208     15.78302         0.344525     -0.666552     -0.072648
O      15.33423     13.58761      2.74983         0.154241     -0.882719     -0.554610
O      15.34157     13.49434     15.83424        -0.046135     -0.292347      0.030391
O       3.96056      1.97190      7.21880        -0.246644     -0.219151     -0.824129
O       3.80492     13.40633      7.08396         0.295124      0.033054     -0.352557
O       0.06866      1.81656      6.95545         0.416414      0.619662      0.443581
O       0.15330     13.43916      7.11140        -1.840131      0.245515     -0.474530
O       3.87533      1.84799     11.45441        -0.023208      0.127450      0.301208
O       3.81249     13.52807     11.46502        -0.715295     -0.274677      0.503234
O       0.03081      1.91734     11.48155        -0.364777      0.090028     -0.083176
O      15.33224     13.48111     11.47442         0.085834     -0.815917     -0.358960
O       3.78971      5.91642      2.61925         0.150638     -0.929713      0.018935
O       3.81002      5.91568     15.90216         0.167767     -1.212895     -0.659500
O      15.29255      5.75113      2.71221         0.304904     -0.070690     -0.295467
O      15.35248      5.77372     15.81807         0.630860      0.413551     -0.250892
O       3.88843      5.77210      7.16006         0.191080     -0.334981     -0.492386
O       0.04025      5.69683      7.20469        -0.938401      0.367945     -0.046382
O       3.87207      5.91281     11.37975        -0.962758      0.206614      0.308895
O      15.34553      5.68263     11.33247         0.390052      0.503895     -0.244848
O       3.78347      9.52003      2.79740        -0.526856      0.043747     -0.324362
O       3.74230      9.72798     15.89765         0.572761     -0.859817     -0.648549
O      15.26387      9.68621      2.65507         0.454484     -0.401830      0.208553
O      15.34605      9.61820     15.92857        -0.477370     -0.185513     -0.709604
O       3.77958      9.51847      7.02007         0.140882      0.448720     -0.036698
O      15.29824      9.64107      7.11837         0.375450     -0.417644     -0.365642
O       3.86600      9.50167     11.44893        -1.436506      0.171523     -0.067690
O      15.25676      9.67358     11.36315         1.297888     -0.431417     -0.078048
O       7.63665      1.88250      2.55676         1.207158      0.337965      0.503347
O       7.71692      1.95882     15.90018        -0.279062     -0.399971     -0.386314
O       7.77500     13.42015      2.76947        -0.459180     -0.042388     -0.102598
O       7.70437     13.43592     15.81933        -0.343344     -0.290976      0.066959
O       7.75082      1.85373      7.14716        -0.527165      0.080965     -0.550227
O       7.70369     13.36280      7.08175        -1.427766      0.021381      0.224700
O       7.58776      1.99233     11.55195         1.275064     -0.067400     -0.578811
O       7.65379     13.45241     11.49082         0.125497      0.207039     -0.045796
O       7.70663      5.76900      2.74905        -0.569123      0.141857      0.304799
O       7.72392      5.71819     15.78655        -0.957143      0.606971     -0.099488
O       7.67941      5.76981      7.06736         0.553201      0.103236     -0.374896
O       7.65383      5.71097     11.47564         0.013768      0.132444      0.046926
O       7.52703      9.69322      2.63502         1.241130     -0.783790      0.163220
O       7.67933      9.58665     15.86841        -0.291344      0.117171     -0.229681
O       7.64083      9.55407      7.29388        -0.441441      0.186672     -0.600543
O       7.70635      9.62801     11.49402         0.102076      0.295972     -0.110331
O      11.56453      2.06523      2.82375        -0.972675     -0.709796     -0.957388
O      11.56280      2.01707     15.60158        -0.392706     -0.656256      0.598793
O      11.55450     13.29164      2.79386        -1.419540      0.987666     -0.306551
O      11.53032     13.50760     15.86164         0.003852      0.262695     -0.485927
O      11.48852      1.89377      7.06555        -0.335523     -0.303631      0.418788
O      11.48045     13.36477      7.14789         0.671101      0.313565     -0.142209
O      11.59942      2.05678     11.43285        -1.139179     -1.041643     -0.444548
O      11.55009     13.46365     11.45517        -0.665138      0.016820     -0.256937
O      11.44880      5.77659      2.83361         1.043102     -0.039122     -0.512300
O      11.46883      5.61281     15.83893         1.079882      0.754714     -0.215484
O      11.52566      5.65470      7.14544        -0.474296      0.090355     -0.528836
O      11.61074      5.72364     11.36323        -1.536118      0.275120     -0.057690
O      11.47424      9.62561      2.82420        -0.803536     -0.071750     -0.457152
O      11.48911      9.58168     15.80671        -0.279371      0.223393     -0.138613
O      11.45015      9.69960      7.21210         0.800490     -0.272159     -0.018622
O      11.56277      9.60952     11.38362        -1.271107      0.042760      0.290347
O       1.96203      3.80580      2.70334        -0.300025      0.886696     -0.436382
O       1.93939      3.86329     15.59350         0.830143     -0.162378      0.702533
O       2.00401     15.31862      2.60724         0.182584     -0.159350      0.304960
O       1.98245     15.33602     15.88897        -0.444995      0.738112     -0.115782
O      13.44894      3.84439      2.74986        -0.161506      0.350509     -0.287576
O      13.53800      3.83656     15.62071        -0.022210      0.786743      0.839208
O      13.32756      0.07938      2.71944        -0.029596     -1.156423     -0.179806
O      13.49833     15.34830     15.73442        -0.261987      0.583115      0.224705
O       2.00051      3.84439      7.17617        -0.165283     -0.467460     -0.060018
O       2.04972      0.09059      7.12196        -0.136823     -1.221347     -0.649262
O      13.39835      3.69439      7.17824         0.561419      1.512381      0.070086
O      13.49488     15.34222      7.07862        -0.324843     -1.259471     -0.104580
O       1.96789      3.84293     11.56894         0.213894      0.376736     -0.795283
O       1.85564     15.28868     11.40707         0.242563      0.481841      0.265477
O      13.47221      3.87737     11.39697         0.159426     -0.450372     -0.493357
O      13.44850     15.31125     11.49617        -0.248487      0.767537     -0.193700
O       1.79324      7.61589      2.66122         0.236441      0.574475      0.019992
O       1.98531      7.74976     15.84140        -0.624058     -0.731347     -0.408468
O      13.34034      7.71696      2.74378         0.347067     -0.741591     -0.198181
O      13.39373      7.75407     15.80164         0.136577     -1.192861      0.079051
O       1.92599      7.69193      7.05476        -0.417782      0.676341     -0.000263
O      13.28550      7.70143      7.01432         0.548296     -0.767700     -0.008925
O       1.79260      7.67932     11.44288         0.442676      0.718158     -0.364680
O      13.45716      7.61809     11.45960         0.207354      1.140280     -0.672178
O       1.93892     11.42959      2.79933        -0.024785      1.234517     -0.413456
O       1.81586     11.44311     15.87195         0.357389      0.965700      0.072327
O      13.36858     11.50318      2.68789         0.457078      0.971390      0.033435
O      13.38147     11.56432     15.91448         0.363889     -0.218422     -0.554740
O       1.87521     11.53456      7.07816         0.332487     -0.350173     -0.735831
O      13.40075     11.55425      7.25524         0.437524     -0.013737     -0.501188
O       2.00354     11.48180     11.37501        -0.274809      0.027121     -0.068367
O      13.45424     11.51170     11.32220        -0.371908      0.553653     -0.096517
O       5.76327      3.89671      2.77076        -0.053878     -0.573218     -0.299222
O       5.81803      3.82974     15.73133        -0.923433      0.599085      0.108322
O       5.79938     15.35632      2.62951        -0.271070     -0.104412      0.034156
O       5.88868     15.32227     16.01743        -0.773028     -0.275453     -0.489865
O       5.91870      3.78963      7.10338        -0.494492      0.355358     -0.188178
O       5.78790     15.34080      7.13154        -0.102829     -0.554001     -0.431056
O       5.61548      3.94611     11.33866         0.301874     -1.093188      0.361624
O       5.79422      0.00608     11.41634        -0.116854      0.173401      0.397441
O       5.73272      7.63014      2.70918         0.075306      0.740672      0.124163
O       5.64489      7.75045     15.81997         0.368746     -1.129668      0.129774
O       5.74449      7.58884      7.14800         0.193416      1.025949     -0.441085
O       5.85285      7.79453     11.63458        -0.489960     -1.403508     -0.897088
O       5.68152     11.44942      2.74992         0.171517      0.381623      0.237474
O       5.67251     11.49010     15.79524         0.435908      0.964375      0.218282
O       5.71436     11.47032      7.12552         0.045619      0.197852     -0.330566
O       5.63939     11.56744     11.55765         0.604651     -0.380385     -0.005656
O       9.56805      3.81109      2.68983         0.006096      0.010772     -0.062970
O       9.56769      3.78957     15.64966        -0.006978      0.061128      1.154669
O       9.58681      0.01919      2.68071         0.551832     -0.502683     -0.110094
O       9.48462      0.06604     15.84137         0.929636     -1.441123     -0.228558
O       9.55809      3.81765      7.09475        -0.027118      0.209551     -0.142304
O       9.55760     15.33926      6.94256         0.206525      0.406193      0.527629
O       9.60744      3.87951     11.41235        -0.126767     -1.674911     -0.196089
O       9.57789      0.06407     11.50361         0.377898     -0.354294      0.010583
O       9.55989      7.74049      2.77087        -0.103275     -0.672033      0.081163
O       9.64070      7.61109     15.70800        -0.182202      0.376471     -0.009752
O       9.61298      7.65964      7.15662         0.032928     -0.883861      0.058154
O       9.52347      7.59522     11.47411         0.715758      1.447285     -0.257321
O       9.52298     11.44493      2.72575         0.319471      0.857727     -0.146711
O       9.65555     11.55725     15.74692        -0.276684     -0.306873      0.296349
O       9.52800     11.48124      7.27844         0.170495      0.442870     -0.400684
O       9.48433     11.65355     11.49019         0.983873     -1.390950     -0.156387
