  # total energy = -7889.88290316 
CRSYTAL
PRIMVEC
    15.2000000000000000    0.0000000000000000    0.0000000000000000
     0.0000000000000000   15.2000000000000000    0.0000000000000000
     0.0000000000000000    0.0000000000000000    17.000000000000000
PRESSURE
7.37633 7.37697 -0.220851 0.059596 0.061002 -0.020576
PRIMCOORD
320 1
Pb       3.78063      3.78063      4.22070        -0.009942     -0.009716      0.082399
Pb       3.78136      3.78136     16.97256         0.002277      0.002686      0.076090
Pb       3.78063     15.18062      4.22070        -0.010432     -0.011321      0.082034
Pb       3.78136     15.18137     16.97256         0.001918      0.000784      0.075639
Pb      15.18063      3.78062      4.22070        -0.011579     -0.010147      0.082038
Pb      15.18136      3.78136     16.97256         0.000495      0.002167      0.075636
Pb      15.18063     15.18063      4.22071        -0.011099     -0.010880      0.081572
Pb      15.18137     15.18136     16.97256         0.000843      0.001295      0.075109
Pb       3.78136      3.78136      8.47256         0.002264      0.002693      0.076082
Pb       3.78136     15.18136      8.47256         0.001908      0.000790      0.075638
Pb      15.18136      3.78136      8.47256         0.000519      0.002166      0.075632
Pb      15.18137     15.18136      8.47256         0.000856      0.001299      0.075112
Pb       3.78063      3.78063     12.72070        -0.009930     -0.009724      0.082388
Pb       3.78063     15.18062     12.72070        -0.010431     -0.011336      0.082025
Pb      15.18063      3.78062     12.72070        -0.011592     -0.010145      0.082029
Pb      15.18063     15.18063     12.72071        -0.011092     -0.010887      0.081562
Pb       3.78063      7.58062      4.22070        -0.010363     -0.011306      0.082054
Pb       3.78136      7.58136     16.97256         0.001801      0.000845      0.075648
Pb      15.18063      7.58063      4.22070        -0.011161     -0.010944      0.081535
Pb      15.18136      7.58136     16.97256         0.000966      0.001340      0.075086
Pb       3.78136      7.58136      8.47256         0.001806      0.000821      0.075637
Pb      15.18136      7.58136      8.47256         0.000979      0.001326      0.075078
Pb       3.78063      7.58062     12.72070        -0.010354     -0.011293      0.082049
Pb      15.18063      7.58063     12.72070        -0.011170     -0.010939      0.081540
Pb       3.78063     11.38063      4.22070        -0.009958     -0.009730      0.082409
Pb       3.78136     11.38136     16.97256         0.002279      0.002656      0.076134
Pb      15.18063     11.38062      4.22071        -0.011556     -0.010140      0.082077
Pb      15.18136     11.38136     16.97255         0.000486      0.002121      0.075685
Pb       3.78136     11.38136      8.47256         0.002289      0.002667      0.076132
Pb      15.18136     11.38136      8.47256         0.000477      0.002140      0.075680
Pb       3.78063     11.38063     12.72070        -0.009958     -0.009725      0.082416
Pb      15.18063     11.38062     12.72071        -0.011548     -0.010133      0.082078
Pb       7.58063      3.78063      4.22070        -0.011616     -0.010170      0.082025
Pb       7.58136      3.78136     16.97256         0.000569      0.002222      0.075643
Pb       7.58062     15.18062      4.22071        -0.011087     -0.010859      0.081590
Pb       7.58137     15.18136     16.97255         0.000885      0.001212      0.075136
Pb       7.58136      3.78136      8.47256         0.000557      0.002223      0.075637
Pb       7.58137     15.18136      8.47256         0.000881      0.001214      0.075127
Pb       7.58063      3.78063     12.72070        -0.011629     -0.010203      0.082022
Pb       7.58063     15.18062     12.72071        -0.011100     -0.010842      0.081584
Pb       7.58063      7.58062      4.22070        -0.011165     -0.010916      0.081554
Pb       7.58136      7.58136     16.97256         0.000998      0.001272      0.075112
Pb       7.58136      7.58136      8.47256         0.000989      0.001274      0.075106
Pb       7.58063      7.58062     12.72070        -0.011169     -0.010886      0.081547
Pb       7.58063     11.38063      4.22071        -0.011602     -0.010175      0.082047
Pb       7.58136     11.38136     16.97255         0.000505      0.002214      0.075691
Pb       7.58136     11.38136      8.47255         0.000504      0.002210      0.075694
Pb       7.58063     11.38063     12.72071        -0.011609     -0.010194      0.082048
Pb      11.38063      3.78062      4.22071        -0.009895     -0.009646      0.082440
Pb      11.38136      3.78136     16.97256         0.002235      0.002551      0.076143
Pb      11.38063     15.18063      4.22071        -0.010453     -0.011401      0.082038
Pb      11.38136     15.18136     16.97255         0.001867      0.000889      0.075675
Pb      11.38136      3.78136      8.47256         0.002241      0.002560      0.076131
Pb      11.38136     15.18136      8.47255         0.001877      0.000879      0.075672
Pb      11.38063      3.78062     12.72071        -0.009883     -0.009653      0.082446
Pb      11.38063     15.18063     12.72071        -0.010451     -0.011387      0.082042
Pb      11.38063      7.58063      4.22071        -0.010397     -0.011387      0.082055
Pb      11.38137      7.58136     16.97255         0.001779      0.000912      0.075675
Pb      11.38137      7.58136      8.47255         0.001777      0.000916      0.075667
Pb      11.38063      7.58063     12.72071        -0.010391     -0.011371      0.082054
Pb      11.38063     11.38062      4.22071        -0.009919     -0.009642      0.082471
Pb      11.38136     11.38137     16.97255         0.002229      0.002535      0.076186
Pb      11.38136     11.38137      8.47255         0.002236      0.002538      0.076185
Pb      11.38063     11.38062     12.72071        -0.009918     -0.009662      0.082463
Ti       1.87621      1.87629      2.26835         0.038303      0.035346     -0.681095
Ti       1.87634      1.87650     15.01841         0.021660      0.021097     -0.650294
Ti       1.87621     13.27629      2.26836         0.050156      0.049943     -0.813200
Ti       1.87635     13.27650     15.01841         0.031285      0.033729     -0.780977
Ti      13.27621      1.87629      2.26836         0.054215      0.045434     -0.813417
Ti      13.27634      1.87649     15.01840         0.036583      0.027494     -0.780794
Ti      13.27621     13.27629      2.26836         0.045825      0.042756     -0.909803
Ti      13.27634     13.27650     15.01841         0.029924      0.029453     -0.875718
Ti       1.87634      1.87650      6.51841         0.021659      0.021101     -0.650333
Ti       1.87635     13.27650      6.51841         0.031261      0.033744     -0.780855
Ti      13.27634      1.87649      6.51840         0.036596      0.027493     -0.780791
Ti      13.27635     13.27650      6.51841         0.029921      0.029442     -0.875682
Ti       1.87621      1.87629     10.76835         0.038297      0.035322     -0.681143
Ti       1.87621     13.27629     10.76836         0.050140      0.049935     -0.813203
Ti      13.27621      1.87629     10.76836         0.054243      0.045459     -0.813350
Ti      13.27621     13.27629     10.76836         0.045830      0.042732     -0.909911
Ti       1.87621      5.67629      2.26836         0.050129      0.049956     -0.813184
Ti       1.87634      5.67650     15.01841         0.031278      0.033778     -0.780882
Ti      13.27621      5.67629      2.26836         0.045848      0.042715     -0.909716
Ti      13.27634      5.67649     15.01841         0.029933      0.029468     -0.875837
Ti       1.87635      5.67650      6.51841         0.031256      0.033746     -0.780785
Ti      13.27635      5.67649      6.51841         0.029934      0.029459     -0.875883
Ti       1.87621      5.67629     10.76836         0.050116      0.049969     -0.813274
Ti      13.27621      5.67629     10.76835         0.045851      0.042711     -0.909662
Ti       1.87621      9.47629      2.26836         0.038309      0.035310     -0.681335
Ti       1.87634      9.47649     15.01841         0.021678      0.021155     -0.650184
Ti      13.27621      9.47629      2.26836         0.054236      0.045455     -0.813451
Ti      13.27634      9.47650     15.01841         0.036600      0.027444     -0.780815
Ti       1.87634      9.47649      6.51841         0.021688      0.021148     -0.650257
Ti      13.27634      9.47650      6.51840         0.036583      0.027458     -0.780750
Ti       1.87621      9.47629     10.76836         0.038289      0.035327     -0.681197
Ti      13.27621      9.47629     10.76836         0.054228      0.045463     -0.813424
Ti       5.67621      1.87629      2.26836         0.054210      0.045438     -0.813197
Ti       5.67634      1.87649     15.01841         0.036655      0.027462     -0.781075
Ti       5.67621     13.27629      2.26836         0.045832      0.042716     -0.909989
Ti       5.67634     13.27650     15.01840         0.029967      0.029442     -0.875566
Ti       5.67634      1.87650      6.51841         0.036646      0.027467     -0.781015
Ti       5.67634     13.27650      6.51840         0.029969      0.029440     -0.875572
Ti       5.67621      1.87629     10.76836         0.054227      0.045438     -0.813186
Ti       5.67621     13.27629     10.76836         0.045829      0.042730     -0.909997
Ti       5.67621      5.67629      2.26836         0.045835      0.042723     -0.909763
Ti       5.67634      5.67649     15.01841         0.029976      0.029477     -0.875780
Ti       5.67634      5.67649      6.51841         0.029933      0.029478     -0.875818
Ti       5.67621      5.67629     10.76835         0.045832      0.042729     -0.909812
Ti       5.67621      9.47629      2.26836         0.054207      0.045484     -0.813174
Ti       5.67634      9.47650     15.01841         0.036633      0.027474     -0.781042
Ti       5.67634      9.47650      6.51841         0.036618      0.027443     -0.780959
Ti       5.67621      9.47629     10.76836         0.054217      0.045462     -0.813131
Ti       9.47621      1.87629      2.26836         0.038320      0.035350     -0.681344
Ti       9.47634      1.87650     15.01841         0.021687      0.021098     -0.650185
Ti       9.47621     13.27629      2.26836         0.050071      0.049964     -0.813276
Ti       9.47634     13.27650     15.01841         0.031334      0.033749     -0.780757
Ti       9.47634      1.87650      6.51841         0.021682      0.021094     -0.650120
Ti       9.47634     13.27650      6.51841         0.031354      0.033753     -0.780855
Ti       9.47621      1.87629     10.76836         0.038297      0.035340     -0.681257
Ti       9.47621     13.27629     10.76836         0.050066      0.049940     -0.813251
Ti       9.47621      5.67629      2.26836         0.050050      0.049931     -0.813328
Ti       9.47634      5.67650     15.01841         0.031352      0.033747     -0.780723
Ti       9.47634      5.67650      6.51841         0.031354      0.033761     -0.780813
Ti       9.47621      5.67629     10.76836         0.050066      0.049956     -0.813303
Ti       9.47621      9.47629      2.26836         0.038297      0.035327     -0.681394
Ti       9.47634      9.47649     15.01840         0.021688      0.021146     -0.650159
Ti       9.47634      9.47649      6.51840         0.021697      0.021130     -0.650049
Ti       9.47621      9.47629     10.76836         0.038297      0.035321     -0.681385
O       1.88259      1.88257      0.44974        -0.016831     -0.016919      0.525948
O       1.88356      1.88353     13.20067        -0.023776     -0.023778      0.491787
O       1.88259     13.28257      0.44973        -0.020101     -0.019207      0.504311
O       1.88356     13.28354     13.20067        -0.027171     -0.026172      0.469994
O      13.28259      1.88257      0.44973        -0.019157     -0.020128      0.504451
O      13.28356      1.88354     13.20067        -0.026222     -0.027092      0.469900
O      13.28259     13.28257      0.44973        -0.016384     -0.016517      0.493960
O      13.28356     13.28354     13.20067        -0.023196     -0.023246      0.459883
O       1.88356      1.88353      4.70067        -0.023776     -0.023778      0.491735
O       1.88356     13.28354      4.70067        -0.027172     -0.026174      0.470009
O      13.28356      1.88354      4.70067        -0.026225     -0.027088      0.469876
O      13.28356     13.28353      4.70067        -0.023194     -0.023253      0.459879
O       1.88259      1.88257      8.94973        -0.016831     -0.016916      0.525922
O       1.88259     13.28257      8.94973        -0.020097     -0.019208      0.504321
O      13.28259      1.88257      8.94973        -0.019159     -0.020124      0.504428
O      13.28259     13.28257      8.94973        -0.016380     -0.016518      0.493956
O       1.88259      5.68257      0.44973        -0.020103     -0.019222      0.504309
O       1.88356      5.68354     13.20067        -0.027170     -0.026165      0.470045
O      13.28259      5.68257      0.44973        -0.016384     -0.016513      0.493842
O      13.28356      5.68354     13.20067        -0.023198     -0.023250      0.459995
O       1.88356      5.68354      4.70067        -0.027169     -0.026162      0.470053
O      13.28356      5.68354      4.70067        -0.023198     -0.023247      0.459961
O       1.88259      5.68257      8.94973        -0.020098     -0.019221      0.504322
O      13.28259      5.68257      8.94973        -0.016380     -0.016509      0.493849
O       1.88259      9.48257      0.44973        -0.016834     -0.016913      0.526049
O       1.88356      9.48354     13.20067        -0.023778     -0.023783      0.491700
O      13.28259      9.48257      0.44973        -0.019158     -0.020135      0.504443
O      13.28356      9.48353     13.20067        -0.026223     -0.027072      0.469892
O       1.88356      9.48354      4.70067        -0.023777     -0.023782      0.491625
O      13.28356      9.48354      4.70067        -0.026225     -0.027072      0.469890
O       1.88259      9.48257      8.94973        -0.016833     -0.016917      0.526026
O      13.28259      9.48257      8.94973        -0.019158     -0.020140      0.504412
O       5.68259      1.88257      0.44973        -0.019169     -0.020123      0.504313
O       5.68356      1.88354     13.20067        -0.026219     -0.027091      0.470065
O       5.68259     13.28257      0.44973        -0.016389     -0.016517      0.493982
O       5.68356     13.28354     13.20067        -0.023189     -0.023245      0.459900
O       5.68356      1.88354      4.70067        -0.026213     -0.027089      0.470040
O       5.68356     13.28354      4.70067        -0.023190     -0.023249      0.459879
O       5.68259      1.88257      8.94973        -0.019167     -0.020119      0.504275
O       5.68259     13.28257      8.94973        -0.016392     -0.016518      0.493941
O       5.68259      5.68257      0.44973        -0.016382     -0.016515      0.493868
O       5.68356      5.68354     13.20067        -0.023188     -0.023255      0.460028
O       5.68356      5.68354      4.70067        -0.023192     -0.023250      0.459980
O       5.68259      5.68257      8.94973        -0.016387     -0.016514      0.493817
O       5.68259      9.48257      0.44973        -0.019165     -0.020134      0.504299
O       5.68356      9.48353     13.20067        -0.026215     -0.027073      0.470078
O       5.68356      9.48353      4.70067        -0.026213     -0.027073      0.470044
O       5.68259      9.48257      8.94973        -0.019164     -0.020138      0.504312
O       9.48259      1.88257      0.44973        -0.016845     -0.016919      0.526046
O       9.48356      1.88353     13.20067        -0.023765     -0.023777      0.491630
O       9.48259     13.28257      0.44973        -0.020092     -0.019211      0.504357
O       9.48356     13.28354     13.20067        -0.027177     -0.026175      0.469988
O       9.48356      1.88353      4.70067        -0.023767     -0.023777      0.491672
O       9.48356     13.28354      4.70067        -0.027176     -0.026173      0.469945
O       9.48259      1.88257      8.94973        -0.016845     -0.016916      0.526081
O       9.48259     13.28257      8.94973        -0.020095     -0.019210      0.504372
O       9.48259      5.68257      0.44973        -0.020094     -0.019221      0.504386
O       9.48356      5.68354     13.20067        -0.027180     -0.026161      0.470006
O       9.48356      5.68354      4.70067        -0.027174     -0.026162      0.469959
O       9.48259      5.68257      8.94973        -0.020097     -0.019221      0.504364
O       9.48259      9.48257      0.44973        -0.016845     -0.016917      0.526151
O       9.48356      9.48354     13.20067        -0.023765     -0.023782      0.491527
O       9.48356      9.48354      4.70067        -0.023766     -0.023782      0.491542
O       9.48259      9.48257      8.94973        -0.016845     -0.016919      0.526137
O       3.77947      1.88236      2.60763        -0.017487     -0.012784      0.082083
O       3.77979      1.88290     15.35905        -0.018883     -0.021768      0.076872
O       3.77947     13.28236      2.60763        -0.010619     -0.015052      0.087429
O       3.77978     13.28290     15.35906        -0.011949     -0.024323      0.081616
O      15.17947      1.88236      2.60763         0.028661     -0.012637      0.080407
O      15.17978      1.88290     15.35905         0.026658     -0.021612      0.075069
O      15.17947     13.28236      2.60763         0.020679     -0.014943      0.085453
O      15.17978     13.28290     15.35905         0.018697     -0.024183      0.079745
O       3.77978      1.88290      6.85905        -0.018834     -0.021767      0.076873
O       3.77978     13.28290      6.85906        -0.011966     -0.024325      0.081614
O      15.17979      1.88290      6.85905         0.026623     -0.021609      0.075076
O      15.17978     13.28290      6.85905         0.018721     -0.024188      0.079739
O       3.77947      1.88236     11.10763        -0.017488     -0.012785      0.082086
O       3.77947     13.28236     11.10763        -0.010618     -0.015047      0.087429
O      15.17947      1.88236     11.10763         0.028667     -0.012638      0.080402
O      15.17947     13.28236     11.10763         0.020671     -0.014940      0.085453
O       3.77947      5.68236      2.60763        -0.010596     -0.015048      0.087419
O       3.77978      5.68290     15.35906        -0.011970     -0.024332      0.081630
O      15.17947      5.68236      2.60763         0.020673     -0.014936      0.085431
O      15.17978      5.68290     15.35905         0.018736     -0.024189      0.079747
O       3.77978      5.68290      6.85906        -0.011972     -0.024329      0.081628
O      15.17978      5.68290      6.85905         0.018724     -0.024187      0.079746
O       3.77947      5.68236     11.10763        -0.010592     -0.015051      0.087415
O      15.17947      5.68236     11.10763         0.020666     -0.014938      0.085431
O       3.77947      9.48236      2.60763        -0.017475     -0.012781      0.082098
O       3.77979      9.48290     15.35905        -0.018869     -0.021770      0.076859
O      15.17947      9.48236      2.60763         0.028638     -0.012631      0.080430
O      15.17978      9.48290     15.35906         0.026642     -0.021611      0.075063
O       3.77979      9.48290      6.85905        -0.018865     -0.021771      0.076861
O      15.17978      9.48290      6.85906         0.026641     -0.021612      0.075070
O       3.77947      9.48236     11.10763        -0.017481     -0.012782      0.082096
O      15.17947      9.48236     11.10763         0.028660     -0.012632      0.080432
O       7.57947      1.88236      2.60763         0.028638     -0.012635      0.080417
O       7.57978      1.88290     15.35905         0.026627     -0.021609      0.075085
O       7.57947     13.28236      2.60763         0.020707     -0.014942      0.085464
O       7.57979     13.28290     15.35906         0.018657     -0.024184      0.079717
O       7.57978      1.88290      6.85905         0.026612     -0.021607      0.075077
O       7.57979     13.28290      6.85906         0.018660     -0.024184      0.079718
O       7.57947      1.88236     11.10763         0.028669     -0.012635      0.080403
O       7.57947     13.28236     11.10763         0.020726     -0.014940      0.085470
O       7.57947      5.68236      2.60763         0.020688     -0.014938      0.085447
O       7.57979      5.68290     15.35906         0.018661     -0.024191      0.079728
O       7.57979      5.68290      6.85905         0.018683     -0.024190      0.079739
O       7.57947      5.68236     11.10763         0.020699     -0.014939      0.085455
O       7.57947      9.48236      2.60763         0.028654     -0.012633      0.080421
O       7.57978      9.48290     15.35905         0.026632     -0.021610      0.075073
O       7.57978      9.48290      6.85905         0.026637     -0.021614      0.075064
O       7.57947      9.48236     11.10763         0.028650     -0.012633      0.080413
O      11.37947      1.88236      2.60763        -0.017490     -0.012784      0.082123
O      11.37978      1.88290     15.35905        -0.018846     -0.021770      0.076830
O      11.37947     13.28236      2.60763        -0.010580     -0.015052      0.087428
O      11.37978     13.28290     15.35905        -0.011965     -0.024325      0.081612
O      11.37978      1.88290      6.85906        -0.018845     -0.021767      0.076829
O      11.37978     13.28290      6.85905        -0.011971     -0.024326      0.081612
O      11.37947      1.88236     11.10763        -0.017523     -0.012787      0.082117
O      11.37947     13.28236     11.10763        -0.010590     -0.015051      0.087432
O      11.37947      5.68236      2.60763        -0.010579     -0.015047      0.087418
O      11.37979      5.68290     15.35905        -0.011993     -0.024327      0.081624
O      11.37979      5.68290      6.85905        -0.011999     -0.024327      0.081619
O      11.37947      5.68236     11.10763        -0.010585     -0.015046      0.087420
O      11.37947      9.48236      2.60763        -0.017495     -0.012784      0.082137
O      11.37978      9.48290     15.35906        -0.018850     -0.021768      0.076827
O      11.37978      9.48290      6.85906        -0.018853     -0.021770      0.076822
O      11.37947      9.48236     11.10763        -0.017504     -0.012783      0.082134
O       1.88240      3.77938      2.60762        -0.010874     -0.012655      0.081395
O       1.88295      3.77977     15.35904        -0.021477     -0.016132      0.076890
O       1.88240     15.17938      2.60763        -0.010730      0.033485      0.079747
O       1.88295     15.17977     15.35904        -0.021322      0.029383      0.075109
O      13.28240      3.77938      2.60762        -0.013136     -0.005620      0.086674
O      13.28295      3.77977     15.35904        -0.024032     -0.009177      0.081572
O      13.28240     15.17938      2.60762        -0.013025      0.025653      0.084854
O      13.28295     15.17977     15.35904        -0.023890      0.021519      0.079828
O       1.88295      3.77977      6.85904        -0.021472     -0.016114      0.076898
O       1.88295     15.17977      6.85904        -0.021320      0.029336      0.075112
O      13.28295      3.77977      6.85904        -0.024034     -0.009184      0.081572
O      13.28295     15.17977      6.85904        -0.023890      0.021536      0.079833
O       1.88240      3.77938     11.10762        -0.010874     -0.012658      0.081401
O       1.88240     15.17938     11.10763        -0.010732      0.033487      0.079740
O      13.28240      3.77938     11.10762        -0.013134     -0.005603      0.086673
O      13.28240     15.17938     11.10762        -0.013025      0.025641      0.084855
O       1.88240      7.57938      2.60762        -0.010733      0.033487      0.079768
O       1.88295      7.57977     15.35904        -0.021324      0.029320      0.075091
O      13.28240      7.57938      2.60762        -0.013026      0.025664      0.084838
O      13.28295      7.57977     15.35904        -0.023887      0.021512      0.079843
O       1.88295      7.57977      6.85904        -0.021322      0.029332      0.075099
O      13.28295      7.57977      6.85904        -0.023887      0.021519      0.079848
O       1.88240      7.57938     11.10762        -0.010733      0.033497      0.079766
O      13.28240      7.57938     11.10762        -0.013027      0.025647      0.084839
O       1.88240     11.37938      2.60762        -0.010874     -0.012614      0.081416
O       1.88295     11.37977     15.35904        -0.021477     -0.016156      0.076881
O      13.28240     11.37938      2.60762        -0.013135     -0.005639      0.086709
O      13.28295     11.37977     15.35904        -0.024035     -0.009148      0.081557
O       1.88295     11.37977      6.85904        -0.021477     -0.016142      0.076886
O      13.28295     11.37977      6.85904        -0.024033     -0.009164      0.081555
O       1.88240     11.37938     11.10762        -0.010875     -0.012624      0.081413
O      13.28240     11.37938     11.10762        -0.013139     -0.005619      0.086711
O       5.68240      3.77938      2.60762        -0.013127     -0.005623      0.086670
O       5.68295      3.77977     15.35904        -0.024041     -0.009149      0.081591
O       5.68240     15.17938      2.60762        -0.013020      0.025679      0.084850
O       5.68295     15.17977     15.35904        -0.023897      0.021509      0.079840
O       5.68295      3.77977      6.85904        -0.024042     -0.009185      0.081590
O       5.68295     15.17977      6.85904        -0.023896      0.021536      0.079833
O       5.68240      3.77938     11.10762        -0.013130     -0.005619      0.086661
O       5.68240     15.17938     11.10762        -0.013020      0.025678      0.084844
O       5.68240      7.57938      2.60762        -0.013017      0.025659      0.084830
O       5.68295      7.57977     15.35904        -0.023894      0.021475      0.079860
O       5.68295      7.57977      6.85904        -0.023896      0.021501      0.079857
O       5.68240      7.57938     11.10762        -0.013018      0.025660      0.084818
O       5.68240     11.37938      2.60762        -0.013132     -0.005654      0.086694
O       5.68295     11.37977     15.35904        -0.024040     -0.009138      0.081565
O       5.68295     11.37977      6.85904        -0.024041     -0.009146      0.081559
O       5.68240     11.37938     11.10762        -0.013129     -0.005655      0.086691
O       9.48240      3.77938      2.60762        -0.010869     -0.012651      0.081420
O       9.48295      3.77977     15.35904        -0.021483     -0.016112      0.076874
O       9.48240     15.17938      2.60762        -0.010723      0.033480      0.079769
O       9.48295     15.17977     15.35904        -0.021325      0.029354      0.075092
O       9.48295      3.77977      6.85904        -0.021486     -0.016120      0.076878
O       9.48295     15.17977      6.85904        -0.021329      0.029368      0.075095
O       9.48240      3.77938     11.10762        -0.010869     -0.012661      0.081417
O       9.48240     15.17938     11.10762        -0.010723      0.033491      0.079766
O       9.48240      7.57938      2.60762        -0.010724      0.033509      0.079778
O       9.48295      7.57977     15.35904        -0.021329      0.029324      0.075074
O       9.48295      7.57977      6.85904        -0.021328      0.029332      0.075078
O       9.48240      7.57938     11.10762        -0.010724      0.033490      0.079782
O       9.48240     11.37938      2.60762        -0.010866     -0.012643      0.081431
O       9.48295     11.37977     15.35904        -0.021480     -0.016149      0.076862
O       9.48295     11.37977      6.85904        -0.021481     -0.016165      0.076868
O       9.48240     11.37938     11.10762        -0.010866     -0.012620      0.081432
