  # total energy = -7880.33240100 
CRSYTAL
PRIMVEC
    15.3600000000000000    0.0000000000000000    0.0000000000000000
     0.0000000000000000   15.3600000000000000    0.0000000000000000
     0.0000000000000000    0.0000000000000000    17.440000000000000
PRESSURE
3.77565 3.59912 7.76746 -0.21773 -0.480172 0.023999
PRIMCOORD
320 1
Pb       3.80245      3.85189      4.38030        -0.029512     -0.298089     -0.005050
Pb       3.96772      3.81232     17.33487        -0.775120     -0.396436      0.485424
Pb       3.81953     15.34002      4.32527        -0.149226     -0.001200      0.384365
Pb       3.90620      0.03264     17.39471        -0.427450     -0.243856      0.056260
Pb      15.31309      3.83079      4.39480         0.407953     -0.163234     -0.054390
Pb       0.08552      3.83835      0.03162        -0.371467     -0.112433     -0.251832
Pb       0.02398     15.30977      4.31234        -0.003817      0.064336      0.374514
Pb      15.14295     15.32099     17.41995         0.519774     -0.187276      0.427006
Pb       3.77989      3.92887      8.55227         0.088207     -0.174573      0.521140
Pb       3.82303     15.32602      8.80696         0.144006      0.296875     -0.494436
Pb      15.09566      3.88178      8.59540         0.804857     -0.158938      0.921163
Pb      15.28587      0.14494      8.65814         0.412130     -0.264404      0.313422
Pb       3.88322      3.76635     12.94140        -0.212947      0.227488      0.597635
Pb       3.78162     15.23595     12.97797        -0.153607      0.539261     -0.133322
Pb      15.31497      3.71033     13.08853         0.592866      0.136787     -0.112994
Pb      15.35720      0.03659     12.91628         0.347710     -0.376170      0.330459
Pb       3.90960      7.70234      4.26117        -0.252658     -0.522149      0.220195
Pb       3.73261      7.66770      0.02569        -0.136548     -0.387541     -0.074971
Pb       0.15949      7.67801      4.29332        -0.606097     -0.024280      0.132887
Pb      15.34551      7.79788     17.32435        -0.317953     -0.812917      0.575520
Pb       3.95075      7.61052      8.68770        -0.466352      0.227276     -0.055680
Pb      15.33393      7.62587      8.66643         0.068330      0.401326     -0.066358
Pb       3.82903      7.65698     13.06449         0.054641     -0.586954     -0.254808
Pb       0.05491      7.69617     13.06758        -0.464924     -0.306885      0.194298
Pb       3.68389     11.47258      4.30006         0.270354      0.305479      0.161045
Pb       3.98340     11.32970     17.31056        -0.669254      0.949012      0.682498
Pb       0.13770     11.63446      4.16685        -0.591645     -0.423094      0.820220
Pb      15.30028     11.45684     17.32905        -0.211885      0.535957      0.139162
Pb       3.78678     11.59580      8.70369         0.228087     -0.365467     -0.061811
Pb       0.00143     11.37936      8.64202        -0.333582      0.271490      0.184179
Pb       3.96070     11.51752     12.98318        -0.789128     -0.132125      0.162925
Pb       0.08493     11.47890     13.11802        -0.247319      0.154582     -0.100483
Pb       7.67807      3.72768      4.38186         0.161261      0.242062     -0.116025
Pb       7.73249      3.91301     17.24608        -0.563053     -0.609494      1.453873
Pb       7.67151      0.06393      4.30168         0.170876     -0.983144      0.244427
Pb       7.44967     15.34780     17.31300         0.807086     -0.363167      0.848696
Pb       7.65620      3.81628      8.67099         0.152571      0.033130      0.338408
Pb       7.69306     15.27009      8.61065        -0.466853      0.096922      0.188924
Pb       7.80324      3.94278     13.21970        -0.848157     -0.221314     -0.762324
Pb       7.72189      0.10708     13.01417        -0.787375     -0.427274     -0.001173
Pb       7.55317      7.56498      4.26030         0.423995      0.073995      0.588128
Pb       7.65883      7.63395     17.42146         0.013864      0.316219     -0.282947
Pb       7.60017      7.82621      8.61143         0.347389     -0.544950      0.323143
Pb       7.63218      7.62418     12.98961         0.071116     -0.381139     -0.053549
Pb       7.65657     11.41830      4.33269         0.263348      0.568027      0.169326
Pb       7.59274     11.62859     17.29355         0.027644     -0.579846      0.937914
Pb       7.73510     11.47131      8.68107        -0.841530      0.394369      0.093859
Pb       7.85797     11.64038     13.06609        -0.802722     -0.356862     -0.216719
Pb      11.58638      3.75090      4.34951        -0.500588      0.378341     -0.067832
Pb      11.51989      3.82994      0.00984         0.105234     -0.341654     -0.171940
Pb      11.55765      0.03364      4.22354        -0.436341     -0.741177      0.849807
Pb      11.44607     15.32079     17.20370         0.046634     -0.342313      1.227396
Pb      11.58128      4.02346      8.65272        -0.464335     -0.990135      0.383403
Pb      11.50007     15.27421      8.62165        -0.522901      0.798973      0.825573
Pb      11.52863      3.73143     13.20265         0.117843     -0.202581      0.044077
Pb      11.41171     15.33367     13.00926         0.579634      0.052746      0.481078
Pb      11.57894      7.69648      4.21132        -0.170196     -0.348765      0.654124
Pb      11.42369      7.58930     17.43394         0.134204      0.589815     -0.231710
Pb      11.55667      7.66135      8.64053        -0.249646      0.571428      0.054105
Pb      11.42893      7.70813     12.97883        -0.089647      0.004847      0.565093
Pb      11.56286     11.40035      4.37994        -0.328746      0.375750     -0.192632
Pb      11.40147     11.48776     17.35399         0.185154      0.235915      0.128219
Pb      11.48700     11.51160      8.80827         0.150914     -0.421581     -0.372125
Pb      11.48501     11.47746     12.93857        -0.005741     -0.086276      0.569052
Ti       2.00152      1.86949      2.35150        -0.597431      0.398863      2.571231
Ti       1.98660      1.86714     15.41702        -0.651683     -0.169459     -0.193817
Ti       1.92507     13.51922      2.19228        -0.435869     -1.056819      1.698503
Ti       1.87499     13.47369     15.51408        -0.254352     -0.884624     -1.048842
Ti      13.55030      1.91474      2.43892        -0.475533     -0.313614     -0.425546
Ti      13.54775      1.89168     15.49521        -1.449068      0.121848      0.208783
Ti      13.37663     13.37805      2.37720         0.132196      0.129239      1.042346
Ti      13.44047     13.39683     15.35019        -1.174108      0.113323      1.343951
Ti       1.90851      1.97593      6.79621         0.035434     -0.956654      0.194065
Ti       1.80369     13.42039      6.83815         0.123038      0.506151      0.497872
Ti      13.39282      1.87178      6.73810        -0.128132      0.733162      0.674730
Ti      13.34048     13.43749      6.77690         0.854574     -0.560117      0.568412
Ti       1.98009      1.98949     10.97663        -0.988885     -1.042620      2.057803
Ti       1.83624     13.36755     11.04186         0.142392      0.924398      1.061122
Ti      13.39982      1.86803     11.16765         0.159502     -0.000623     -1.176594
Ti      13.38280     13.35218     11.13931         0.209325      0.167728      1.940098
Ti       1.89078      5.68835      2.38811        -0.369452     -0.110987      1.470102
Ti       1.82908      5.69935     15.39970         0.407590      0.040916      1.007420
Ti      13.41108      5.76143      2.34839         0.184701      0.010480      2.724896
Ti      13.40278      5.72120     15.43419        -0.115010     -0.591124      1.308385
Ti       1.77821      5.75066      6.67336         1.183288      0.717183      0.743256
Ti      13.36804      5.85048      6.62208         0.361245     -0.336328      0.535827
Ti       1.86882      5.75900     11.05543         0.112737     -1.110767      1.518692
Ti      13.40996      5.63663     11.31001         0.788284      0.672891     -0.909524
Ti       1.90453      9.56560      2.33238         0.163088      0.079898      0.449592
Ti       1.86195      9.59050     15.48028        -0.401877      0.176605      0.899203
Ti      13.44997      9.55025      2.36078         0.273727      0.412741      0.956671
Ti      13.29453      9.54295     15.39829        -0.294260      0.372391      1.025691
Ti       1.97110      9.58097      6.69495        -1.467586     -0.362728      1.306857
Ti      13.43735      9.67443      6.64750        -0.457425     -0.214796      2.109088
Ti       1.89817      9.56316     11.06086        -0.335489      0.183758     -0.450077
Ti      13.37459      9.47112     11.16088         0.085090      0.810442      1.399121
Ti       5.78726      1.82668      2.41549        -0.275664      0.218937      2.317335
Ti       5.77663      1.89071     15.33664        -0.602158     -0.445925     -1.099144
Ti       5.68064     13.30382      2.43540         1.030603      0.776139      2.303548
Ti       5.63453     13.35943     15.23719         0.028485      0.305311      0.928345
Ti       5.74434      1.93983      6.73397        -0.487610     -0.324396      1.699674
Ti       5.57437     13.47271      6.62634         1.374582     -0.440288      1.978490
Ti       5.74310      1.89212     11.05716         0.021207      0.214847      0.384442
Ti       5.70279     13.37630     11.03458         1.131961      0.960135      0.430487
Ti       5.73314      5.62993      2.26700        -0.235756     -0.261395      1.987475
Ti       5.61844      5.72111     15.48087         0.572010      0.066445     -0.205654
Ti       5.76821      5.79633      6.75023        -0.404217     -0.151927      0.751377
Ti       5.71595      5.71060     11.03783         0.396113     -0.204247      2.079621
Ti       5.79453      9.52693      2.34452        -0.245909      0.585526      3.060557
Ti       5.67099      9.46178     15.31739         0.991290      0.495890      1.261522
Ti       5.66233      9.63297      6.61610         0.703517     -0.051520      1.315865
Ti       5.75109      9.59159     11.10728        -0.520029     -1.001702     -0.158300
Ti       9.65286      1.91417      2.40614        -0.440631     -0.595363      1.607756
Ti       9.56645      1.83385     15.50672         0.666731      1.117482     -0.365539
Ti       9.58593     13.31791      2.41021        -0.625896      1.058820      1.098426
Ti       9.45174     13.40672     15.40778         1.477588     -0.093864     -0.384054
Ti       9.58974      1.92303      6.71363        -0.051897      0.163505      0.795781
Ti       9.52530     13.37658      6.67266        -0.374160      0.208698      0.749741
Ti       9.56010      1.94468     11.13221         0.050718     -0.701686     -0.418725
Ti       9.53911     13.42258     11.09107        -0.364031      0.468760      1.444454
Ti       9.52255      5.76731      2.32851         0.869535     -1.327617      0.617705
Ti       9.54912      5.73766     15.48754         0.287203      0.681734      0.267978
Ti       9.56587      5.73919      6.67492        -0.563279     -0.081038      1.590189
Ti       9.66837      5.64042     11.11430        -1.382865      0.706434     -0.312700
Ti       9.58471      9.51336      2.35157         0.367147      0.928675     -0.100385
Ti       9.44825      9.59284     15.40565         0.626711     -0.877924      0.926404
Ti       9.60601      9.60165      6.73392        -0.099481     -0.196459      1.158809
Ti       9.46779      9.52041     11.00725         1.182579      0.405238      0.270136
O       2.04202      1.91523      0.68151        -0.077564     -0.002540     -2.883543
O       1.96093      1.86203     13.68181        -0.103347     -0.254224     -0.285725
O       1.83892     13.44630      0.52249         0.287766     -0.018875     -2.661832
O       1.80673     13.44642     13.75242         0.026080      0.081850     -0.832343
O      13.53849      1.88240      0.70211        -0.210223      0.145638     -0.756999
O      13.45081      1.86990     13.77797         0.029324      0.258693     -1.840889
O      13.34167     13.37879      0.69789         0.050105      0.095195     -2.594852
O      13.44190     13.44957     13.66472         0.095994     -0.130773     -1.669638
O       1.95506      1.90561      5.09418        -0.142155      0.121079     -1.840255
O       1.92874     13.30904      5.13993        -0.135225      0.137088     -2.180612
O      13.53234      1.85895      5.04913        -0.128725     -0.039268     -2.275519
O      13.48782     13.39632      5.09854        -0.206946      0.060235     -2.258527
O       1.85448      1.91074      9.30071         0.223722      0.046282     -2.513252
O       1.95321     13.28554      9.34176        -0.145981      0.124879     -1.750917
O      13.36440      1.93749      9.41176         0.195853     -0.038303     -0.983350
O      13.22103     13.31745      9.47718         0.036271      0.391704     -2.793782
O       1.78772      5.69837      0.69916         0.365501     -0.360623     -2.133460
O       1.86833      5.77908     13.71887         0.002899     -0.074889     -1.863881
O      13.41227      5.68625      0.68728         0.110050      0.011058     -3.261368
O      13.47491      5.54088     13.74254        -0.277097      0.390409     -1.437157
O       1.81128      5.72122      4.96129         0.046779      0.020904     -1.803239
O      13.34521      5.84432      4.93254         0.205701     -0.211593     -1.537000
O       1.77106      5.84714      9.36631         0.025256      0.014093     -1.896954
O      13.35396      5.62801      9.54888         0.021377      0.197920     -1.165217
O       1.92062      9.41109      0.62082        -0.153761      0.575029     -2.336508
O       1.76162      9.51609     13.81425         0.337394      0.032227     -3.108972
O      13.41300      9.46835      0.66216         0.114804      0.217124     -1.996015
O      13.24954      9.51044     13.69931         0.050213      0.035150     -1.329102
O       1.83081      9.69950      5.00485         0.452238     -0.234367     -2.704684
O      13.30900      9.64410      4.98140         0.154066     -0.036675     -2.825372
O       1.81545      9.61549      9.31413         0.125360     -0.331703      0.015328
O      13.32222      9.50279      9.48532         0.112187      0.076619     -2.970158
O       5.75789      1.67842      0.75885        -0.095996      0.140976     -3.791036
O       5.64096      1.86070     13.60678         0.368047      0.080418     -0.343063
O       5.82998     13.28428      0.76720        -0.177581      0.038516     -3.276243
O       5.70847     13.36078     13.52775         0.001505     -0.247938     -1.051891
O       5.74953      1.86160      5.03312        -0.075649      0.212496     -1.834549
O       5.58641     13.45259      4.93277        -0.187613      0.135763     -1.676281
O       5.64512      2.03033      9.33925         0.275759     -0.332995     -1.173387
O       5.67851     13.39398      9.30303        -0.194062     -0.072511     -0.737231
O       5.64030      5.68482      0.57609         0.165851     -0.019106     -2.225960
O       5.55201      5.69729     13.78008         0.366315      0.264683     -1.251371
O       5.76972      5.90903      5.04971         0.113091     -0.263414     -2.127852
O       5.66737      5.76411      9.35677        -0.024197      0.227619     -3.016019
O       5.67464      9.52607      0.69524         0.043192      0.329680     -3.593986
O       5.65585      9.50264     13.61988         0.055129     -0.037824     -1.564143
O       5.69282      9.41214      4.91363         0.012925     -0.098564     -1.647577
O       5.69066      9.51326      9.38117        -0.048051     -0.087805     -1.343185
O       9.60688      1.68989      0.75214        -0.101960      0.200743     -3.012556
O       9.52801      1.94705     13.76155        -0.011972      0.007581     -0.840841
O       9.50159     13.36689      0.70823        -0.052465      0.112940     -2.515653
O       9.45659     13.32088     13.65564        -0.122877      0.274908     -0.513108
O       9.54084      2.01519      5.00105        -0.048118      0.204057     -1.630488
O       9.57123     13.09293      4.98899         0.053403      0.480537     -0.806186
O       9.53928      1.92084      9.43116        -0.001710     -0.104173     -1.460696
O       9.44466     13.50889      9.41782         0.415283      0.082241     -2.804471
O       9.42022      5.72193      0.59105         0.336746      0.503085     -1.419740
O       9.49140      5.68768     13.77782         0.023651     -0.354617     -2.197790
O       9.52583      5.53028      4.99810        -0.034313      0.280706     -1.914048
O       9.66528      5.58118      9.37848         0.279407      0.462561     -0.122904
O       9.54854      9.42569      0.62416        -0.118065      0.048069     -1.065893
O       9.48334      9.53259     13.70304         0.072171      0.450016     -2.030369
O       9.60861      9.70059      5.04304         0.090811      0.077297     -2.177016
O       9.57400      9.49788      9.27060        -0.118957      0.154631     -0.529885
O       3.82767      1.87446      2.78349         0.680453     -0.228026      0.468112
O       3.88333      1.83528     15.81799        -0.120543      0.063476      0.528827
O       3.77239     13.50791      2.65862         0.005279     -0.451218      0.437040
O       3.77182     13.21654     15.66008         0.986769      0.542288      0.644631
O       0.05471      1.90030      2.82854        -0.409966      0.196714      0.120395
O       0.00045      1.85726     15.87526         1.016500     -0.132079      0.141073
O       0.03440     13.41285      2.61864        -0.479937     -0.025756      0.675892
O      15.26386     13.48358     15.86497        -0.098180     -0.327763      0.261435
O       3.79790      2.02540      7.09597         0.323142     -0.319235      0.577971
O       3.76909     13.42527      7.20819        -0.331116      0.247445      0.278399
O      15.34401      1.97394      7.13968        -0.929273     -0.462918      0.500103
O      15.28768     13.39016      7.15299        -0.430721      0.047886      0.707223
O       3.83531      1.78011     11.37933        -0.429120      0.540209      0.450193
O       3.81945     13.34733     11.42336        -0.581215     -0.175393      0.317294
O       0.00239      1.87408     11.36758        -0.224073      0.075255      0.742820
O      15.31518     13.39367     11.43655         0.019231     -0.154850      0.125832
O       3.84108      5.73972      2.75515         0.154406      0.030920      0.172710
O       3.75930      5.64654     15.85109         0.001314      0.228859      0.549726
O      15.31416      5.65160      2.79788         0.937421      0.268465      0.185523
O      15.32447      5.71176     15.83061        -0.481688     -0.078912      0.333312
O       3.74005      5.87768      6.97517         0.268344     -0.258815      0.794922
O      15.26095      5.80023      7.11849        -0.532227     -0.178081      0.163772
O       3.82752      5.71604     11.46881        -1.302916      0.270301      0.069093
O      15.31185      5.66774     11.60519         0.382113      0.173441      0.095223
O       3.85071      9.55339      2.66953        -0.424172     -0.422233      0.577982
O       3.77252      9.57603     15.82261         0.411853     -0.226066      0.087698
O       0.02960      9.54060      2.74933        -0.022440      0.411307      0.077375
O      15.24479      9.60163     15.74530        -0.268864     -0.486909      0.670051
O       3.78200      9.42199      7.05501         0.772510      0.154323      0.234297
O      15.29673      9.62845      7.02020        -0.219330      0.245673      0.650277
O       3.85133      9.55496     11.43921        -1.782452     -0.217272      0.426117
O      15.24836      9.64975     11.49964         1.591285     -0.555854      0.437449
O       7.70510      1.89210      2.86467        -0.416361      0.305182     -0.126688
O       7.62749      1.86105     15.82901         0.240898      0.012196      0.246403
O       7.66546     13.30964      2.79768        -0.545904      0.197364      0.577087
O       7.54644     13.37306     15.72429         0.040822      0.162182      0.331571
O       7.64471      1.98371      7.06820        -0.468798     -0.102381      0.431383
O       7.54728     13.37951      7.07758         0.311955     -0.003409      0.146818
O       7.62264      1.84455     11.47343         0.299791      0.291793      0.311789
O       7.63916     13.42222     11.37431        -0.444458     -0.040336      0.905381
O       7.66934      5.60554      2.68482        -0.617352      0.304569      0.489216
O       7.64698      5.74268     15.80462        -0.984955     -0.047624      0.393395
O       7.65099      5.79182      7.16026         0.391379     -0.250874     -0.012232
O       7.62755      5.63463     11.47308         0.747470      0.616709      0.517838
O       7.72820      9.61234      2.72281        -1.174736     -0.079253      0.323551
O       7.57735      9.52066     15.73714        -0.504087     -0.119352      0.506486
O       7.62203      9.60437      7.02920        -0.453104      0.256383      0.464756
O       7.61532      9.45512     11.27720         0.609939     -0.000355      0.942699
O      11.54875      1.88018      2.88640         0.671735      0.176254     -0.328067
O      11.46769      1.96348     15.86175        -0.236145     -0.383688      0.259180
O      11.48692     13.48225      2.77785         0.334981     -0.292816      0.326018
O      11.39755     13.39232     15.67674        -0.037170      0.128870      0.612171
O      11.46474      1.90892      6.99076         0.379885     -0.106242      0.535205
O      11.43601     13.49431      7.17633        -0.535668     -0.382609     -0.090961
O      11.50223      1.95253     11.46567        -0.690841     -0.172730      0.913391
O      11.41157     13.46923     11.57863         0.613255     -0.420000     -0.075632
O      11.50394      5.83026      2.66405        -0.341731     -0.047557      0.338269
O      11.42289      5.63969     15.78548         1.242351      0.180005      0.620637
O      11.50722      5.78698      7.05325        -0.289943     -0.271153      0.395588
O      11.52022      5.64338     11.61135        -1.111770      0.029603      0.350828
O      11.53181      9.51471      2.67215        -0.405461     -0.117505      0.521185
O      11.37107      9.56293     15.96060         0.712911      0.097659     -0.351016
O      11.45391      9.71622      7.11296         0.533486     -0.537112      0.503406
O      11.44472      9.57551     11.44238        -0.886824     -0.111574      0.552056
O       2.00383      3.74839      2.89870        -0.581845      0.877252     -0.307317
O       1.89482      3.73686     15.76562         0.008663      0.474414      0.611551
O       1.83066     15.33800      2.74832         0.472571      0.144588      0.123081
O       1.93262     15.28317     15.89594         0.241890      1.408641      0.285264
O      13.47071      3.84223      2.78898        -0.472885     -0.678470      0.304626
O      13.39134      3.74268     15.86735         0.231390      1.350166      0.550685
O      13.47470     15.29528      2.76298         0.154958      0.834361      0.428935
O      13.33529      0.00842     15.81893         0.266271     -0.855131      0.334104
O       1.82671      3.88637      7.07581        -0.016269      0.348313      0.396136
O       1.81851     15.35534      7.04292         0.183334      0.011600      1.044172
O      13.42623      3.83190      6.97187        -0.399315      0.623908      0.486057
O      13.35629      0.01037      7.14370         0.424672     -0.324987      0.570148
O       1.87126      3.80333     11.46643         0.329671      0.478180     -0.018348
O       1.88161     15.33017     11.36254         0.215352     -0.636819      0.280928
O      13.42010      3.76814     11.59786        -0.060427     -0.414219      0.626306
O      13.36240     15.34185     11.51897         0.038302     -0.368958      0.133973
O       1.90316      7.63128      2.58160         0.040884     -0.136139      1.224918
O       1.89300      7.62084     15.76531        -0.012673      0.256065      0.815252
O      13.52789      7.67737      2.77494        -0.239620     -0.366916      0.310673
O      13.31416      7.62467     15.85993         0.136849     -0.073269     -0.158957
O       1.69869      7.69502      6.97539         0.196785     -0.273661      0.626908
O      13.35303      7.73471      6.98030        -0.058162     -0.259442      0.798681
O       1.75486      7.60252     11.49065         0.620938      1.536552      0.106489
O      13.35369      7.61203     11.50604         0.146417     -0.529274      0.719192
O       1.90692     11.50449      2.62124         0.346736      0.035028      0.229071
O       1.68898     11.51563     15.69309         0.481572     -0.754815      1.027095
O      13.38434     11.47317      2.69553         0.271892      0.002892      0.484505
O      13.28109     11.51351     15.72956         0.513908     -0.582274      0.522658
O       1.86533     11.47101      7.11818         0.404021     -0.103927      0.785622
O      13.24360     11.55319      7.14016         0.545467     -0.349568      0.478577
O       1.87373     11.45180     11.46468         0.117751     -0.127100      0.468564
O      13.31612     11.45069     11.50156         0.080407      0.696173      0.418806
O       5.71439      3.75380      2.68148        -0.040797      0.516097      0.429175
O       5.77146      3.74741     15.71053        -0.183022      0.750506      0.757698
O       5.67228     15.29895      2.75945         0.650373     -0.104764      0.585238
O       5.75541     15.29505     15.64031        -0.543613     -0.571493      0.711008
O       5.67359      3.89428      7.15293         0.289348     -0.136851     -0.276176
O       5.66103     15.35739      7.14557        -0.052980      0.410663      0.058567
O       5.69064      3.82816     11.51500         0.160777     -0.611343     -0.060455
O       5.68331     15.30661     11.44396         0.180875     -0.272636     -0.039641
O       5.85114      7.58875      2.59713        -0.229034      0.160709      0.671894
O       5.69722      7.61771     15.83401        -0.337403      0.277431      0.210023
O       5.79103      7.67279      7.12739        -0.466866      0.565605      0.513455
O       5.67027      7.57747     11.56009         0.306418      0.670608      0.090635
O       5.61473     11.45021      2.90183         0.467083     -0.373822     -0.394777
O       5.71863     11.43881     15.74596         0.059456     -0.124367      0.031616
O       5.52680     11.48703      6.89735         0.299836     -0.139352      0.400712
O       5.77196     11.43352     11.44195        -0.073229      0.863771      0.333718
O       9.72383      3.82209      2.61911        -0.319030      0.221190      0.643643
O       9.54897      3.80345     15.92936        -0.055072     -0.429565     -0.124495
O       9.54878     15.34223      2.91454         0.243219     -0.278673      0.071227
O       9.53427     15.33463     15.79104        -0.382972     -0.645986      0.072665
O       9.54716      3.82076      7.18798         0.221459      0.496472     -0.005864
O       9.45885     15.35440      7.03781         0.255682     -0.411715      0.172195
O       9.50177      3.79936     11.50595         0.297103      0.262552      0.829524
O       9.54930     15.34361     11.58274         0.102949      0.381164     -0.066318
O       9.51465      7.62761      2.77931         0.038902      0.027044      0.144004
O       9.56923      7.66945     15.66491        -0.189406     -0.530742      1.189893
O       9.60703      7.68593      7.03285        -0.080945     -0.412466      0.259480
O       9.57711      7.66349     11.48615        -0.057256     -0.971749      0.055255
O       9.64012     11.46918      2.69034         0.174712     -1.075788      0.420777
O       9.42694     11.50419     15.78470         0.326008      0.102919      0.301881
O       9.49752     11.53907      7.28032         0.583316      0.045619     -0.148474
O       9.48387     11.50494     11.33872         0.226253     -0.892793      0.555533
