  # total energy = -7878.24324516 
CRSYTAL
PRIMVEC
    15.6000000000000000    0.0000000000000000    0.0000000000000000
     0.0000000000000000   15.6000000000000000    0.0000000000000000
     0.0000000000000000    0.0000000000000000    17.640000000000000
PRESSURE
-4.74785 -4.48203 0.941557 -0.15033 -0.075607 0.020254
PRIMCOORD
320 1
Pb       3.76180      3.78043      4.42199         0.072011     -0.128247     -0.455815
Pb       3.93184      3.94538     17.60248        -0.037548     -0.109115     -0.346295
Pb       3.83596     15.47679      4.34654        -0.425133      0.000218     -0.843145
Pb       3.76760     15.57516     17.58899        -0.112133      0.137736     -0.632073
Pb       0.03278      3.89911      4.35725        -0.547575     -0.475527     -0.020239
Pb       0.00206      4.00734      0.00462         0.294072     -0.381998     -0.191327
Pb      15.54376     15.51168      4.30759         0.019891      0.875099     -0.577284
Pb      15.45259      0.01226     17.58329        -0.011674      0.001235     -0.426902
Pb       3.80075      3.99302      8.81564         0.093087     -0.017444     -0.423414
Pb       3.85225      0.04257      8.73794        -0.201491     -0.373294     -0.512019
Pb      15.54533      3.96743      8.78709        -0.116053      0.118466     -0.662589
Pb      15.57513     15.58340      8.72385         0.279694      0.104285     -0.283650
Pb       3.94440      3.61282     13.25494        -0.005495      0.245694     -0.132164
Pb       3.80541     15.48546     13.14043         0.102162      0.895748     -0.011135
Pb       0.01943      3.80441     13.19500        -0.077124      0.189550     -0.922981
Pb      15.55981      0.09865     13.14491         0.117284     -0.334265     -0.405867
Pb       3.88812      7.78163      4.43331         0.701865     -0.199736     -0.396791
Pb       3.96205      7.81091     17.62480         0.073894     -0.268096     -0.800038
Pb       0.09276      7.94247      4.41437        -0.900564     -0.564964     -0.549962
Pb       0.08521      7.84775     17.51044        -0.216399     -0.088491     -0.365644
Pb       3.92018      7.90820      8.85465         0.111425     -0.277652     -0.517393
Pb      15.52059      7.81530      8.91092        -0.174961     -0.123590     -0.516801
Pb       3.93055      7.73864     13.14651         0.103696      0.289885     -0.546819
Pb       0.11727      7.85815     13.20103        -0.248353      0.248314     -0.749046
Pb       3.91904     11.65500      4.37970        -0.215317      0.188929     -0.574182
Pb       3.92261     11.65690     17.61523        -0.381560      0.225758     -1.022547
Pb      15.53719     11.60456      4.31444        -0.107105     -0.256323     -0.880520
Pb      15.55405     11.66947     17.48450         0.097358      0.076545     -0.692759
Pb       3.84355     11.63528      8.81445        -0.548541      0.407586     -0.554146
Pb      15.48735     11.83398      8.77799         0.470851     -0.600169      0.255463
Pb       3.81744     11.83480     13.14985         0.258622     -0.869011     -0.180552
Pb      15.47424     11.68714     13.16922        -0.581282     -0.148185     -0.602831
Pb       7.84978      3.63253      4.56415        -0.066957      0.510063     -0.638359
Pb       7.74894      3.84935     17.59256         0.360334      0.262734     -0.586973
Pb       7.64517     15.42507      4.39686         0.402958      0.191204     -0.718089
Pb       7.71044      0.01611     17.61520        -0.011160     -0.257330     -0.948083
Pb       7.58203      3.94564      8.77679         0.733284     -0.089389      0.058831
Pb       7.80751     15.58590      8.75388         0.038228     -0.007964     -0.051866
Pb       8.04124      4.00475     13.13192         0.162637     -0.672651     -0.260996
Pb       7.81308      0.06695     13.21672         0.101071      0.205813     -0.602003
Pb       7.96011      7.70483      4.40013        -0.416158     -0.059834     -0.402935
Pb       7.81627      7.88787      0.05450        -0.074818     -0.077660     -0.421298
Pb       7.70642      7.84275      8.74120        -0.158231      0.053117     -0.232479
Pb       7.72922      7.92723     13.13094        -0.170162     -0.113781     -0.662534
Pb       7.86409     11.70704      4.43144        -0.200007     -0.635089     -0.553462
Pb       7.76829     11.71987      0.02012         0.125851     -0.098684     -0.868137
Pb       7.85431     11.75183      8.93681        -0.288696     -0.042674     -0.675771
Pb       7.78497     11.81803     13.19269        -0.050458      0.183318     -0.487576
Pb      11.69667      3.86152      4.44114         0.406788      0.247971     -0.360411
Pb      11.81227      3.81806      0.02882        -0.224515      0.193207     -0.434154
Pb      11.51379     15.36335      4.45062         0.146200      0.422303     -0.803835
Pb      11.42386     15.45587      0.01142         0.644688      0.147931     -0.466994
Pb      11.53494      3.94162      8.82469         0.187374     -0.181955     -0.641047
Pb      11.85299      0.06587      8.71440        -0.625597     -0.351585     -0.123688
Pb      11.82984      3.94945     13.19799        -0.471047     -0.251984     -1.082505
Pb      11.68125     15.53835     13.16336        -0.102558      0.146722     -0.542022
Pb      11.76949      7.62046      4.27511        -0.107280      0.414129     -0.272644
Pb      11.65274      7.68086     17.50385         0.234195      0.162918      0.000533
Pb      11.54902      7.81555      8.72103         0.655409     -0.002353     -0.277416
Pb      11.74566      7.69793     13.23233        -0.250796      0.236997     -0.715498
Pb      11.67401     11.62103      4.22863         0.283393     -0.724826     -0.257722
Pb      11.81365     11.55583     17.47197        -0.213092      0.199362     -0.597729
Pb      11.76413     11.62346      8.63354        -0.172487      0.165197      0.559462
Pb      11.58040     11.63434     13.03376         0.594501      0.236638     -0.001968
Ti       1.85113      1.90345      2.29843        -0.182245     -0.368956      0.826968
Ti       1.91235      1.95325     15.65021         0.834726     -0.546518      1.619490
Ti       1.80502     13.53552      2.28196         1.193929      0.275447      1.450483
Ti       1.80068     13.62587     15.51220         0.756569     -0.009487      3.658335
Ti      13.48077      1.90702      2.52099         1.070498      0.266409      0.746183
Ti      13.68406      1.97792     15.44708         0.279944     -0.933643      1.976126
Ti      13.55146     13.64489      2.31560        -0.150061     -0.195064      0.486391
Ti      13.51762     13.69170     15.46671         0.220627     -0.867252      0.207575
Ti       1.93715      1.98057      6.83290        -0.711414     -0.141180     -0.390430
Ti       1.86262     13.61626      6.64640         1.197953     -0.532310      1.991546
Ti      13.61877      1.93715      6.72011         0.460364      1.338862     -0.394456
Ti      13.62454     13.62093      6.64304        -0.421611     -0.097905      2.199381
Ti       1.96207      1.99039     11.12574        -0.124112     -0.676203      0.473862
Ti       1.86209     13.62056     11.21101        -0.738383      1.015734     -0.452506
Ti      13.62855      1.96027     11.08302        -0.457000      0.121803      1.182300
Ti      13.58910     13.64229     11.15022         0.207528      0.179084      2.127251
Ti       1.96828      5.88806      2.51479        -0.102328     -0.638793      2.169712
Ti       2.04750      5.84680     15.48672         0.141226     -0.511287      2.447881
Ti      13.74635      5.86806      2.46427        -0.612472     -0.443954      0.968586
Ti      13.77904      5.77116     15.54702        -0.834153      0.894886      0.354946
Ti       1.94479      5.87393      6.80164        -0.448285      0.162004     -0.129577
Ti      13.62930      5.89817      6.69334        -0.324539     -0.482610      1.015590
Ti       1.92973      5.82677     11.25363        -0.098292      0.002319      1.967391
Ti      13.64796      5.87133     11.14477         0.637815     -0.346432      0.246702
Ti       1.97485      9.69962      2.27405        -0.170057      0.463658     -0.194917
Ti       2.01228      9.71411     15.54353         0.117511      0.454074     -0.183833
Ti      13.66482      9.72878      2.09783        -0.731104     -0.269535      2.162410
Ti      13.63341      9.63286     15.47408         0.398350      1.148215      0.368782
Ti       1.79504      9.69904      6.83011         0.498413      0.503024      3.260596
Ti      13.64013      9.75159      6.77973        -0.113823     -0.561302      0.392114
Ti       1.94778      9.82038     11.19221        -0.550770     -0.798628      1.742679
Ti      13.58328      9.66823     11.14627        -0.069990      0.886865      0.604629
Ti       5.80531      1.96122      2.39236        -0.757900      0.175745      0.067864
Ti       5.88432      1.92282     15.74592        -0.899022     -0.558318     -0.991072
Ti       5.80318     13.55312      2.34351        -0.989580     -0.096758      0.013954
Ti       5.78115     13.58382     15.59238         0.328684      0.557489      1.469182
Ti       5.80971      1.91868      6.77058        -0.264037      0.269576      0.581154
Ti       5.81074     13.65400      6.79291        -0.183344     -0.108721      2.919026
Ti       5.86633      1.91070     11.15344         0.729241      0.283196      2.033808
Ti       5.81978     13.70374     11.10188         0.828305     -0.006258      0.279385
Ti       5.86673      5.80842      2.56241         0.218500      0.457886      1.421945
Ti       5.94534      5.84912     15.42241         0.033916     -0.109872      2.159314
Ti       5.82642      5.83611      6.79708         0.232800      0.758440     -0.032082
Ti       5.84681      5.66850     11.38551        -0.353533      1.289260      0.212883
Ti       5.85274      9.70779      2.40001         0.545954     -0.704326      1.787070
Ti       5.93273      9.72877     15.47568        -1.049367     -0.023081     -0.213410
Ti       5.77671      9.88733      6.82723         0.786726     -1.299518      0.885171
Ti       5.83424      9.82309     11.17367        -0.114228     -0.782507      2.302679
Ti       9.67658      1.88673      2.40213         0.696113     -0.272378      1.439582
Ti       9.83677      1.93152     15.64206        -0.900770      0.242618      0.536621
Ti       9.66332     13.53452      2.28123         0.506874      0.265263      1.271858
Ti       9.68766     13.56706     15.56152        -0.131354      0.003746      0.196088
Ti       9.70466      1.83622      6.75143         0.103905      0.643935      1.090635
Ti       9.69537     13.54378      6.78749        -0.073510      1.187846      1.484109
Ti       9.78073      1.96450     11.10543        -0.199448      0.192208      2.005045
Ti       9.72231     13.71577     11.12158        -0.035068     -0.022748      1.202343
Ti       9.73110      5.70575      2.32175         0.294794      0.867867      1.438496
Ti       9.80348      5.82571     15.64041        -0.067042     -0.607980      0.334036
Ti       9.75007      5.78978      6.72533        -0.054487      0.084265      0.532126
Ti       9.78071      5.98505     11.10549        -0.067522     -1.165043      2.527466
Ti       9.75901      9.69210      2.32511         0.063760     -0.355030      0.244627
Ti       9.73193      9.72045     15.51738         0.483846      0.298684      1.806476
Ti       9.72945      9.73956      6.76390        -0.506616     -0.621857      1.731396
Ti       9.68423      9.80681     11.07947         1.146187     -0.507244      1.109843
O       1.83230      1.83059      0.56064        -0.047787      0.132343     -0.631608
O       1.92300      1.75669     13.96962         0.481914      0.305695     -2.549333
O       1.91694     13.42531      0.58911         0.076514      0.212572     -1.228280
O       1.83667     13.81666     13.85005         0.183537     -0.443999     -2.828716
O      13.56058      1.83431      0.82509         0.110128      0.375785     -2.205952
O      13.67464      1.96427     13.75151        -0.188765      0.391230     -1.249766
O      13.51674     13.78632      0.60433        -0.216118     -0.131598     -1.068893
O      13.53824     13.58275     13.72264         0.098725      0.429561      0.060020
O       1.94642      1.89692      5.09380         0.109558      0.352796     -0.641951
O       1.96135     13.46563      4.93701        -0.461126      0.325930     -0.679607
O      13.70256      2.00960      4.97234        -0.427063     -0.765387     -0.127424
O      13.61403     13.55646      4.94894         0.114247     -0.198782     -1.638450
O       1.93174      1.98119      9.36184         0.077633      0.160289     -0.334315
O       1.81349     13.64812      9.47517         0.142971      0.064390     -0.371986
O      13.58697      1.93388      9.34071         0.209573     -0.167784     -1.126297
O      13.69174     13.70024      9.44662        -0.079645      0.150935     -1.793753
O       2.10115      5.80579      0.86460        -0.111130      0.125669     -3.289260
O       2.00850      5.89893     13.80809        -0.313505      0.069518     -1.767928
O      13.84329      5.74849      0.76557         0.075627     -0.173775     -2.383575
O      13.68893      5.81012     13.80530        -0.206102     -0.180236     -0.242421
O       1.98820      5.91848      5.04246        -0.168657     -0.081728     -0.415680
O      13.50913      5.85417      4.97093         0.509476      0.507522     -0.829562
O       1.84000      5.78531      9.58263         0.454066     -0.433150     -2.822405
O      13.61841      5.87166      9.41036        -0.017915     -0.202831     -0.940605
O       2.03045      9.68627      0.51176        -0.002485     -0.045552     -0.071125
O       1.99984      9.62116     13.78421        -0.041705      0.156099     -0.450150
O      13.62556      9.74839      0.37555         0.223017     -0.237474     -1.480528
O      13.62675      9.74195     13.74669        -0.016618     -0.299206     -1.080154
O       1.57411      9.68627      5.16818         0.325376      0.162677     -2.958984
O      13.60585      9.70882      5.04861         0.655743      0.528291     -1.149602
O       2.00564      9.82325      9.51163        -0.075891     -0.187025     -2.042816
O      13.54637      9.71236      9.42791         0.154756      0.150803     -1.168654
O       5.77140      1.95218      0.64083         0.545783     -0.274931     -0.364801
O       5.77965      1.82920     14.02580         0.120303      0.349842     -1.334818
O       5.75263     13.53532      0.60513         0.187138     -0.221508     -0.768829
O       5.94578     13.56918     13.89806        -0.085739     -0.017028     -2.070088
O       5.71734      1.88748      5.03862         0.483079     -0.133877     -1.224585
O       5.71022     13.56512      5.11598         0.333493      0.063261     -2.704468
O       5.86818      2.02865      9.48475        -0.395421      0.119895     -2.823937
O       5.92381     13.65598      9.38082        -0.428502      0.246246     -0.639206
O       5.75352      5.91478      0.89276        -0.087911      0.033456     -2.776408
O       5.97740      5.83956     13.71770        -0.139113     -0.055536     -1.092049
O       5.98415      5.92204      5.07251        -0.305458     -0.104891     -0.328465
O       5.85074      5.76362      9.68176        -0.302669     -0.345176     -2.160548
O       5.98936      9.62694      0.69787        -0.529634     -0.098570     -2.218927
O       5.98044      9.73416     13.70204         0.232798      0.204040     -0.050847
O       5.88091      9.81983      5.13245        -0.419709      0.192280     -1.419662
O       5.86110      9.73398      9.50184        -0.413607      0.192996     -2.845063
O       9.68986      1.75598      0.69257         0.002904      0.304301     -1.350128
O       9.75537      2.03858     13.93993         0.104228     -0.089164     -1.022308
O       9.76186     13.53681      0.55894        -0.032408      0.157431     -0.803460
O       9.68919     13.57892     13.82167        -0.288809      0.074128     -1.058007
O       9.73355      1.85489      5.01770        -0.468665     -0.068114     -1.037969
O       9.53239     13.53517      5.08040         0.501379      0.226853     -1.917058
O       9.73917      2.03735      9.42887         0.223238     -0.433090     -2.839708
O       9.67408     13.69376      9.40858         0.074820     -0.030216     -1.373387
O       9.82736      5.73645      0.59809        -0.212599      0.283058     -0.776887
O       9.86775      5.82223     13.90084         0.237816     -0.295753     -1.367891
O       9.72223      5.81458      4.98235        -0.313601      0.113478     -0.469261
O       9.88235      5.84048      9.44709         0.001886     -0.014534     -2.725834
O       9.75854      9.70630      0.58644        -0.299084     -0.306660     -0.877743
O       9.66743      9.72937     13.83105        -0.030818     -0.142891     -1.955008
O       9.72875      9.77822      5.08306        -0.131855      0.222656     -2.214879
O       9.69857      9.73082      9.38604         0.209088      0.194074     -2.499710
O       3.81367      1.95712      2.64160         0.950694     -0.102200      0.754076
O       3.88882      1.86951     16.01110         0.006261     -0.113424      0.952764
O       3.79042     13.49806      2.74549         0.713977      0.146343      0.383605
O       3.85711     13.52304     15.90339         0.145410      0.501137      0.306661
O      15.51997      1.71428      2.79780         0.578906      0.434945      0.267254
O       0.05093      2.03611     15.80136        -1.947350     -0.183248      0.980140
O      15.49441     13.52167      2.54597         0.292241      0.508017      0.877814
O      15.55873     13.51251     16.03503        -0.432155      0.254881     -0.272994
O       3.85992      2.07456      7.12522         0.245975     -0.417822      0.849522
O       3.85434     13.69960      7.13788        -0.567372     -0.087173      0.356576
O      15.55235      2.00085      7.09962        -0.260925     -0.083997      0.728300
O      15.58772     13.55797      7.17377        -0.166372      0.650323     -0.534380
O       3.88719      1.90275     11.59428        -0.328498     -0.047950      0.234513
O       3.85508     13.64758     11.56425         0.351015     -0.057986      0.189216
O       0.08106      1.97681     11.59084        -0.745014     -0.083085     -0.005836
O      15.51809     13.70191     11.62044         0.444066     -0.423957      0.145421
O       3.89521      5.75900      2.98611        -0.317172      0.323256      0.398208
O       3.92987      5.81682     15.95383         0.383508      0.126987      0.000075
O       0.04095      5.81426      2.91456         0.010240      0.218931      0.089307
O       0.05268      5.78302     15.99828         0.415115      0.121684      0.206338
O       3.85894      5.81370      7.19769         0.564095      0.184420      0.404247
O      15.57030      5.90988      7.20437        -0.696583     -0.288514      0.019498
O       3.91639      5.79571     11.68782        -0.556950      0.068443      0.218710
O      15.55040      5.75412     11.49737         0.588115      0.107534      0.881659
O       3.85945      9.58214      2.81437        -0.473134      0.741166     -0.088113
O       3.97162      9.68719     15.82482         0.134364     -0.069350      0.749582
O      15.51872      9.70065      2.60623         0.900494      0.189177      0.417355
O       0.03293      9.71371     15.71645        -0.044380      0.046991      1.118918
O       3.76476      9.81453      7.24055         0.921192     -0.435415      0.083853
O      15.51434      9.71351      7.34908         0.742807      0.167831      0.001120
O       3.88558      9.91372     11.51477         0.352320     -0.293709      0.532533
O      15.56236      9.78148     11.53188         0.374630      0.122238      0.613365
O       7.76879      1.83645      2.84851        -0.288620      0.047258      0.237428
O       7.78800      1.95680     16.01142         0.716524     -0.200573      1.020129
O       7.76234     13.53949      2.67845        -0.182243     -0.028319      0.425544
O       7.80143     13.53114     16.02689        -0.567776     -0.084109      0.528258
O       7.71061      2.00232      7.21936         0.302754     -0.440150     -0.384428
O       7.78105     13.66760      7.11764        -0.634540      0.116800      0.548654
O       7.86689      1.95387     11.47528        -1.133908     -0.186240      0.893655
O       7.81000     13.77574     11.43225        -0.510548     -0.414857      0.913653
O       7.78521      5.94488      2.77329         0.920468     -0.527473      0.112279
O       7.90396      5.82816     15.86079        -1.767640     -0.017890      0.612823
O       7.77223      5.89182      7.33399        -0.259107      0.027310     -0.383201
O       7.83113      5.74241     11.50653         0.714549      0.638686      0.660146
O       7.78602      9.74727      2.62255         0.462107     -0.233568      0.893291
O       7.83240      9.72048     15.95314        -0.255521     -0.597191      0.533184
O       7.73052      9.67983      7.18401         0.562109      0.414522      0.326142
O       7.84154      9.71693     11.37731        -0.677508     -0.021735      1.070765
O      11.61782      1.96312      2.78162        -0.938835     -0.258732      0.545505
O      11.74477      1.89460     15.99577        -0.016973      0.180357      0.201767
O      11.64062     13.50674      2.85284        -0.599141      0.452116     -0.162578
O      11.61916     13.59769     15.91356         0.680165      0.589772      0.477879
O      11.60653      1.87177      7.13153         0.459952     -0.037027      0.219815
O      11.70002     13.63298      7.14596        -0.022523     -0.007751     -0.327257
O      11.71670      2.01321     11.45671         0.486537     -0.320236      0.511540
O      11.64599     13.75709     11.58640         0.241162     -0.331121     -0.084395
O      11.76168      5.76988      2.74480        -1.064973      0.216911      0.287881
O      11.74411      5.81456     16.06969         1.191952     -0.334010      0.077936
O      11.66216      5.84268      7.02197        -0.165060      0.111483      0.827695
O      11.76245      5.77562     11.53702        -0.569003      0.219502      0.820033
O      11.68998      9.82295      2.56872        -0.160290     -0.386690      0.500838
O      11.72829      9.67420     15.83956        -0.334146     -0.095635      0.529204
O      11.75603      9.72820      7.12841        -1.785754      0.961544      0.537438
O      11.70152      9.80197     11.46508        -0.169984     -0.300014      0.767160
O       1.80737      3.79298      2.75052         0.350654      0.285333      0.448578
O       2.04176      3.86589     16.04421        -0.243204      1.035124     -0.107146
O       2.01353     15.55160      2.73467        -0.592993     -0.800345      0.171772
O       1.79297     15.53224     16.04360         0.552065     -0.386735      0.495799
O      13.59943      3.91905      2.87459         0.556749     -0.835540      0.218467
O      13.71031      3.87389     15.95163        -0.302914      0.019005      0.369206
O      13.46204     15.55205      2.80054         0.216258     -0.908053      0.813756
O      13.71310     15.59380     15.80537         0.102994      0.294297      0.352503
O       1.88209      3.99351      7.20619         0.051961     -0.723371      0.426454
O       1.88850      0.04448      7.07727         0.027141     -1.000523      0.572995
O      13.48249      3.89969      6.90202         0.547297      0.092251      1.126068
O      13.66675     15.54664      7.03662        -0.046709     -0.020784      0.375839
O       1.96123      3.84211     11.72084         0.192442     -0.028906     -0.084842
O       1.85463     15.59714     11.53227         0.631413      0.086562      0.358696
O      13.71325      3.85199     11.51129        -0.199331      0.133186      0.514953
O      13.59952      0.07297     11.59783         0.205433     -0.201418     -0.087332
O       1.86616      7.82107      2.74350         0.200254      0.051194      0.578817
O       2.00672      7.79137     16.03693        -0.236013     -0.798945      0.097221
O      13.64021      7.79493      2.63386        -0.201378      0.435117      0.367709
O      13.79290      7.75408     15.81572        -0.423902     -0.581694      0.616814
O       1.89224      7.73629      7.28589         0.247644      1.014483      0.205626
O      13.56477      7.90228      7.13359         0.355087     -1.897015      0.332755
O       1.85426      7.75617     11.49665         0.553557      0.559116      0.710004
O      13.71311      7.80124     11.44618        -0.323542     -0.577790      0.842374
O       1.91242     11.58489      2.73722        -0.267764     -0.125851      0.343594
O       2.03082     11.62634     15.96082        -0.488709      0.126588     -0.024140
O      13.57289     11.62283      2.49068         0.235754      0.497035      0.755537
O      13.58110     11.71577     15.77671         0.216310     -0.384888      1.028327
O       1.92653     11.64443      7.19540        -0.340732      0.935344     -0.051689
O      13.65661     11.70903      7.25315        -0.030151      0.487862     -0.432524
O       1.94400     11.70843     11.54942        -0.291678      0.694876      0.841863
O      13.57975     11.75149     11.51070         0.241113     -0.142896      0.317983
O       5.92530      3.84668      2.76294        -0.170659     -0.702833      0.585302
O       5.87837      3.86229     16.05696        -0.114569      1.225260      0.120324
O       5.82472     15.42471      2.71595        -0.165415      1.028374      0.655221
O       5.92458     15.53250     15.92629        -0.184117     -0.456294      1.184960
O       5.83503      3.90383      7.07631         0.015329      0.258319      0.584239
O       5.79575      0.01433      7.23258        -0.011821      0.152979     -0.017695
O       5.78758      3.80034     11.70702         0.261185     -0.129838      0.357271
O       5.82230      0.05487     11.48139        -0.064783     -1.188285      0.601606
O       5.81160      7.81033      2.85525        -0.110464      0.004069      0.720167
O       5.82664      7.75151     15.76618         0.542517     -0.278695      0.706909
O       5.78632      7.85519      7.24760        -0.429562     -0.527803      0.445679
O       5.79972      7.82948     11.52628         0.232223      0.251493      0.985347
O       5.75966     11.62017      2.81296         0.074128      0.281681      0.195358
O       5.85821     11.59750     15.91505         0.143461      0.238689      0.624279
O       5.84767     11.75211      7.26880        -0.232221     -0.173500      0.189650
O       6.00295     11.79876     11.45792        -0.484184     -0.351645      0.637959
O       9.75545      3.85707      2.80991        -0.735632     -0.482636     -0.057441
O       9.73672      3.88122     16.13028         0.396018     -0.737582      0.146562
O       9.70473     15.48545      2.74808         0.205038     -0.178206      0.411392
O       9.63684     15.51286     15.89609         0.362896      0.887891      0.869211
O       9.63143      3.89964      7.02548         0.383643     -0.291844      0.565242
O       9.64364     15.56610      7.15067         0.224608      0.160900      0.099233
O       9.77500      3.85062     11.42024         0.163588      1.129709      1.171320
O       9.72916      0.00074     11.62841         0.322650      0.284641      0.201017
O       9.79219      7.71196      2.74890        -0.107408      0.675653      0.006032
O       9.88547      7.71286     15.87473        -0.452773      1.160144      0.897057
O       9.81260      7.79788      7.08191        -0.553294      0.163832      0.386288
O       9.94407      7.85032     11.41027        -0.585214     -0.644685      0.765884
O       9.67208     11.64681      2.73914         0.099968      0.068086      0.414979
O       9.73906     11.65803     15.87271         0.131159     -0.811800      0.611959
O       9.59371     11.71832      7.13966         0.644894     -0.977863      0.555006
O       9.81334     11.68615     11.43762        -0.675701      0.834248      0.413139
