  # total energy = -7879.03952715 
CRSYTAL
PRIMVEC
    15.6000000000000000    0.0000000000000000    0.0000000000000000
     0.0000000000000000   15.6000000000000000    0.0000000000000000
     0.0000000000000000    0.0000000000000000    17.640000000000000
PRESSURE
-5.43484 -5.3396 -0.012225 0.127295 -0.138181 0.001473
PRIMCOORD
320 1
Pb       3.95165      3.90032      4.31325         0.052107      0.048540     -0.291097
Pb       3.89570      3.76795     17.58816         0.170479      0.758362     -0.702978
Pb       3.88967     15.59800      4.43348         0.245592     -0.055735     -1.140738
Pb       3.94064      0.03779     17.57821         0.114611     -0.707054      0.111542
Pb      15.52833      3.84357      4.31417         0.800202      0.084685     -0.132309
Pb       0.00059      3.76466     17.51867        -0.253675      0.714434      0.144865
Pb       0.01222      0.03290      4.35736         0.115546     -0.616238     -1.026362
Pb       0.07172     15.56862      0.03325        -0.811605     -0.627477     -0.427246
Pb       3.88476      3.85604      8.76190         0.029960      0.429810     -0.764198
Pb       3.87601      0.02601      8.79487        -0.100118     -0.172183     -0.475590
Pb       0.04538      3.83849      8.81875        -0.193596     -0.153509     -1.089943
Pb      15.59753      0.09859      8.83445        -0.022599     -0.541554     -0.348364
Pb       3.82252      3.98983     13.15333        -0.064232      0.032465     -0.297809
Pb       3.95262      0.09163     13.20106        -0.218394     -0.439702     -0.528119
Pb       0.00021      3.87426     13.25015         0.247183     -0.116864     -0.578776
Pb      15.54914     15.56794     13.22487         0.152483     -0.072701     -0.630028
Pb       3.89401      7.78485      4.24502         0.176950      0.008869     -0.092875
Pb       3.86405      7.77561     17.58813         0.164379      0.077810     -0.641028
Pb      15.55460      7.61587      4.39793        -0.169004      0.268325     -0.741733
Pb      15.52697      7.77065     17.60455         0.112987     -0.308102     -0.509041
Pb       3.80491      7.75372      8.76965         0.233598     -0.034202     -0.667859
Pb       0.06045      7.85042      8.68179        -0.647872     -0.453138     -0.247292
Pb       3.88424      7.86385     13.19946         0.490840     -0.624022     -1.004269
Pb      15.53700      7.78156     13.17951        -0.307320      0.017309     -0.628342
Pb       3.90203     11.60459      4.32589         0.030963     -0.294281     -0.659571
Pb       3.85536     11.65032     17.55231         0.198534     -0.066594     -0.146702
Pb       0.07041     11.69970      4.44196        -0.368474     -0.201901     -1.249208
Pb       0.03218     11.59461      0.02681        -0.257994      0.754494     -0.578034
Pb       3.87820     11.74184      8.77988        -0.081777      0.104940     -0.797711
Pb       0.02206     11.53455      8.74589         0.155457      1.079216      0.176155
Pb       3.94078     11.54916     13.20664        -0.604782      1.027462      0.093181
Pb       0.06875     11.67087     13.24433        -0.222902      0.572773     -0.391005
Pb       7.76148      3.90360      4.29450         0.205732     -0.106935     -0.413897
Pb       7.84654      3.85667     17.62365        -0.109624     -0.116907     -0.832925
Pb       7.86406     15.59158      4.39716        -0.349880      0.085078     -0.774734
Pb       7.78503     15.51242     17.59196         0.226768      0.052677     -0.261194
Pb       7.89274      3.89872      8.76770        -0.346770      0.046891     -0.950182
Pb       7.72961      0.03302      8.74204        -0.163225      0.217242     -0.812652
Pb       7.62932      3.81298     13.19826         0.205119      0.403368     -0.400830
Pb       7.77749     15.59731     13.13536         0.018437     -0.275310     -0.236247
Pb       7.70097      7.74232      4.32680         0.095984     -0.170599     -0.112586
Pb       7.78504      7.73736     17.51609        -0.234862      0.154888     -0.405840
Pb       7.82133      7.82702      8.79263         0.001644     -0.205999     -0.599302
Pb       7.86712      7.66645     13.24344        -0.329382      0.462142     -1.291721
Pb       7.69977     11.58691      4.30712         0.546733      0.004381     -0.306876
Pb       7.79073     11.64859     17.51630        -0.302818      0.299146     -0.191178
Pb       7.76591     11.62940      8.68738        -0.019780      0.179528     -0.233329
Pb       7.74688     11.59896     13.21466         0.106087      0.340447     -1.083127
Pb      11.71537      3.83605      4.27973        -0.881290      0.332186     -0.469051
Pb      11.57950      3.86202     17.54924         0.265924     -0.001352     -0.033907
Pb      11.78150      0.05720      4.33050        -0.438712     -1.046759     -0.544028
Pb      11.81314      0.04944     17.57477        -0.279982     -0.549122     -0.583275
Pb      11.70708      3.89006      8.78763         0.119786     -0.262944     -0.756611
Pb      11.55482      0.00885      8.80420         0.326923     -0.260536     -0.404102
Pb      11.64450      3.82051     13.20183        -0.072487      0.210801     -0.678642
Pb      11.70467      0.08525     13.24682        -0.606762     -0.440592     -0.452606
Pb      11.62349      7.83614      4.41797         0.041806      0.039481     -0.681302
Pb      11.79382      7.84909      0.00493        -0.185501      0.005768     -0.327052
Pb      11.77014      7.79781      8.79364        -0.067187     -0.293888     -0.552935
Pb      11.66680      7.85954     13.18255        -0.103784     -0.043217     -1.064540
Pb      11.69570     11.64959      4.53345        -0.260185      0.236209     -1.302021
Pb      11.57303     11.74730      0.11290         0.326101      0.390052     -0.997724
Pb      11.56424     11.75780      8.89836        -0.190771      0.429471     -0.558258
Pb      11.74885     11.67839     13.35712        -0.196875      0.245988     -1.133174
Ti       1.90579      1.95477      2.31517         0.242429     -0.777035      2.558091
Ti       1.86674      1.88144     15.63092         0.338083      0.481812     -0.922215
Ti       1.91051     13.54236      2.31028        -0.381059      0.762432      0.524784
Ti       1.90022     13.64093     15.70236        -0.656278     -0.968065     -1.305732
Ti      13.56909      1.88494      2.37080         0.783817     -0.315866     -0.468130
Ti      13.63915      2.00723     15.53918        -0.899895     -1.422071      0.903616
Ti      13.57299     13.53473      2.32502         0.046727      0.239671      1.211534
Ti      13.53019     13.58119     15.56846         0.774381      0.859598      1.978413
Ti       1.92546      1.85989      6.69115        -0.348247      0.881925      2.144829
Ti       1.91990     13.59127      6.68826        -0.120220      0.540138      0.985377
Ti      13.65304      1.84677      6.65892        -0.509892      0.471382      3.349488
Ti      13.67943     13.61464      6.78564        -0.499536      1.272750     -0.603186
Ti       1.89186      1.94862     11.17653         0.142398      0.228707      2.820250
Ti       1.90176     13.69846     11.19852         0.074513     -0.207355      1.784270
Ti      13.57904      2.01236     11.22862         0.511331     -0.292398      1.176554
Ti      13.54868     13.69695     11.22620        -0.092502     -0.615976      0.139344
Ti       1.96927      5.79716      2.37645         0.933663     -0.083146     -0.537266
Ti       1.94071      5.78572     15.53831        -0.094071      0.381975      2.265645
Ti      13.63538      5.74158      2.32985        -0.560187      1.150139     -0.664863
Ti      13.61284      5.84059     15.56826         1.037719     -0.201047      1.738840
Ti       1.85980      5.86325      6.67611         0.780091     -1.067238     -0.313614
Ti      13.58629      5.82683      6.68107         0.299021      0.367788      0.342594
Ti       1.81328      5.91116     11.12796         1.019383     -0.433158      2.833622
Ti      13.59711      5.81124     11.07834        -0.499369      1.215837      1.635490
Ti       1.90923      9.67393      2.28311         0.052363      0.585875      3.077138
Ti       1.88967      9.69389     15.53486         0.224001      0.886512      2.095526
Ti      13.62027      9.71237      2.26169         0.117687      0.104515      1.019606
Ti      13.63354      9.77318     15.59686        -0.750083      0.600061      2.195661
Ti       1.89883      9.74348      6.69144         1.414366      0.141052     -1.167672
Ti      13.56884      9.89273      6.83239        -0.184934     -1.604158      0.974371
Ti       1.88806      9.79844     11.22574         0.188484     -0.403844      1.185169
Ti      13.56768      9.75766     11.13084         0.865858      0.179010      3.431118
Ti       5.82620      1.91352      2.30361         0.075346     -0.582827      2.173539
Ti       5.81127      1.90123     15.61997         0.733342      0.753721      2.036142
Ti       5.77764     13.60234      2.42362         0.336610      0.438955     -0.292119
Ti       5.79563     13.65649     15.52740         0.109291     -0.212263      0.895769
Ti       5.73794      2.03273      6.73563         1.143228     -0.490144      1.460574
Ti       5.81035     13.67004      6.75584        -0.152587      0.131933     -0.765790
Ti       5.81299      1.99817     11.14623        -0.451778     -0.818578      0.711287
Ti       5.70348     13.64397     11.16675         0.771933      0.368958      2.935419
Ti       5.86533      5.80751      2.15700         0.167196      0.271050      1.713444
Ti       5.82624      5.82826     15.54301        -0.133465     -0.425803      1.122248
Ti       5.85703      5.88777      6.75250        -0.105345     -0.240536      1.788049
Ti       5.82395      5.84948     11.12366        -0.207033      0.597269      2.250712
Ti       5.86131      9.64681      2.27364        -0.532283      0.889872     -0.763878
Ti       5.83135      9.77747     15.46804         0.137781     -0.404215      2.866697
Ti       5.77567      9.69954      6.76772        -0.081971      0.214632      1.158970
Ti       5.81472      9.81747     11.03971         0.815997     -1.217487      2.305807
Ti       9.69540      1.85497      2.30148        -0.806963      0.418629      1.179962
Ti       9.75694      1.94464     15.55160        -0.567488     -0.942385      0.136988
Ti       9.64836     13.52127      2.38742         1.081640      0.332942      0.656756
Ti       9.69771     13.66741     15.44258         0.450886      0.659235      1.110063
Ti       9.76457      1.89618      6.69950        -0.859622      0.481385      0.201994
Ti       9.70310     13.67288      6.65989         0.593559     -0.716521      0.107391
Ti       9.68085      1.99241     11.13941         0.433208     -0.787510      1.531338
Ti       9.62473     13.67693     11.17209         0.301552     -0.445238      2.287778
Ti       9.80180      5.86832      2.27759        -0.834091     -1.360099      2.022143
Ti       9.83202      5.90745     15.51020        -1.358620     -0.578691      1.731567
Ti       9.75861      5.79885      6.72958        -0.759364      0.194959      2.029358
Ti       9.70282      5.77671     11.12802         0.036674      1.423089      1.165258
Ti       9.74080      9.69085      2.25701         0.061571      0.293669      2.484558
Ti       9.75369      9.74232     15.53312         0.117036      0.318725      1.310003
Ti       9.73219      9.74928      6.78857        -0.614141     -0.619008     -0.682901
Ti       9.76916      9.80816     11.12447        -0.848009     -0.393305      2.819991
O       1.73929      1.90939      0.62160         0.499515      0.422405     -2.200984
O       1.86103      1.97692     13.87426        -0.010338     -0.352932      0.567480
O       1.87514     13.56101      0.56542         0.248346      0.188242     -0.534756
O       1.86668     13.51489     13.95211        -0.252739      0.546598     -0.090671
O      13.55347      1.88391      0.63976         0.173941      0.205074     -0.668544
O      13.57377      2.03356     13.79000         0.033322      0.119813     -0.587951
O      13.39969     13.62497      0.62232         0.186582     -0.151398     -1.105203
O      13.59462     13.60351     13.85989        -0.144859     -0.013100     -2.073014
O       1.86635      1.84208      4.98958         0.048805     -0.158018     -0.980072
O       1.85181     13.77754      4.94652         0.000669     -0.531279     -0.404978
O      13.64668      1.75691      4.97758        -0.039642      0.615192     -2.334927
O      13.65036     13.64161      5.02220         0.220215     -0.391510      0.033204
O       1.81809      2.00438      9.49876        -0.059588      0.039129     -2.829180
O       2.03682     13.54224      9.51447         0.053902      0.087892     -1.612967
O      13.59399      2.05764      9.54139         0.259791     -0.123290     -2.245712
O      13.53406     13.73873      9.48941        -0.051850     -0.030884     -0.212485
O       2.07123      5.66703      0.63759        -0.241740      0.336922     -0.253054
O       1.94743      5.85442     13.85264        -0.439093     -0.017476     -2.043798
O      13.51204      5.81224      0.56038         0.520390     -0.219350      0.937149
O      13.78459      5.75105     13.87365        -0.638222      0.369077     -1.046119
O       1.86267      5.84108      4.91347         0.115811      0.326660      0.153327
O      13.62901      6.01008      4.89792         0.002647     -0.650667      0.134679
O       1.95215      5.90412      9.45061        -0.194890     -0.129665     -2.523607
O      13.53765      5.90818      9.38090         0.283222     -0.274107     -1.671015
O       1.92034      9.75497      0.61630        -0.068927     -0.053075     -2.712318
O       1.80226      9.91904     13.82587         0.420294     -0.856204     -0.627535
O      13.63095      9.70697      0.51101        -0.235141     -0.079589     -0.050802
O      13.51276      9.76077     13.89392         0.222061     -0.217949     -1.127414
O       2.05356      9.79796      4.92185        -0.631205      0.040531      0.300472
O      13.52515      9.89632      5.13846        -0.098151     -0.133570     -1.259118
O       1.84663      9.61988      9.50257        -0.163471      0.554221     -0.974421
O      13.69236      9.68820      9.45982         0.041286      0.052778     -3.136653
O       5.85588      1.89156      0.58821        -0.416293      0.178735     -1.191523
O       5.72802      1.78181     13.92987         0.353057      0.321207     -1.716434
O       5.79987     13.62561      0.68865        -0.045489     -0.090130     -0.253527
O       5.84950     13.68636     13.80475         0.014647      0.226869     -0.112339
O       5.75821      1.98865      5.04391        -0.151083      0.021010     -1.508155
O       5.83507     13.79151      4.99166        -0.201771     -0.553602      0.383181
O       5.86554      1.88829      9.42043        -0.075806      0.253125     -0.595577
O       5.64835     13.58357      9.47655        -0.001770      0.013295     -2.466254
O       5.92145      5.91117      0.41678        -0.505912     -0.412149     -0.336572
O       5.79046      5.78188     13.81336         0.231132      0.228666     -0.946745
O       5.91220      6.02360      5.07958        -0.065747     -0.301061     -2.260907
O       5.85902      5.88319      9.43025        -0.125950      0.073803     -1.499152
O       5.74276      9.79734      0.52245         0.334674     -0.338630      0.166689
O       5.83237      9.76679     13.77419         0.016548      0.006334     -1.224967
O       5.77850      9.70640      5.05696         0.022214      0.020638     -1.738858
O       5.83613      9.73739      9.29506        -0.263657      0.236479     -0.055491
O       9.52346      1.89491      0.59601         0.644766      0.080394     -0.948250
O       9.83441      1.87694     13.77201        -0.145093      0.624421      0.174620
O       9.65805     13.42006      0.65129         0.262414      0.057310     -0.776094
O       9.74887     13.88771     13.71554        -0.287564     -0.698154      0.002501
O       9.72506      1.84844      4.94967         0.329362      0.116680     -0.327978
O       9.64793     13.55747      4.90078         0.165284      0.320666      0.715138
O       9.75662      1.96875      9.41895        -0.368137     -0.191081     -1.065018
O       9.72557     13.67896      9.47208         0.057583     -0.051835     -2.166949
O       9.63315      5.81493      0.60378         0.058891      0.057767     -2.226476
O       9.89921      5.89631     13.79230        -0.351895     -0.026053     -0.754216
O       9.75241      5.80243      5.05777         0.109740     -0.043620     -2.479737
O       9.60864      5.85014      9.40952         0.093288     -0.273805     -1.330604
O       9.76700      9.58788      0.56714         0.036459      0.449603     -1.703128
O       9.82514      9.66785     13.81740        -0.118612     -0.211097     -0.831469
O       9.70212      9.72428      5.01321         0.462409      0.087008      0.511947
O       9.69665      9.78368      9.44162         0.215874      0.000420     -2.611114
O       3.93937      1.86974      2.84499        -0.822763      0.826287     -0.386089
O       3.87098      1.93581     16.05393        -1.106565     -0.495714      0.227460
O       3.83639     13.60970      2.74482         0.100232     -0.265762      0.383354
O       3.86552     13.73474     15.89361         0.030493     -0.317804      0.706848
O      15.59881      1.98629      2.75463        -0.128351      0.103013      0.365119
O      15.49640      1.88578     15.97194         0.645762      0.093884      0.234883
O      15.55446     13.63326      2.60444         0.302587     -0.196208      0.759655
O      15.46172     13.64732     16.00141         0.510479     -0.074442      0.551008
O       3.78481      1.99267      7.22460         0.215265     -0.329545     -0.070506
O       3.80530     13.59037      7.14826         0.960307      0.328408      0.201539
O      15.54394      1.88763      7.26646         0.067429      0.031019     -0.301294
O       0.03770     13.59418      7.15812        -0.464248     -0.010750      0.297450
O       3.83473      2.04268     11.54605         0.675005     -0.373850      0.122367
O       3.87414     13.72565     11.72285        -0.253147     -0.199169     -0.197681
O      15.59902      1.94783     11.58080        -0.922316      0.154827      0.524321
O      15.58458     13.67535     11.51441        -0.558762      0.384539      0.603711
O       4.02960      5.83266      2.75249        -1.040396     -0.233571      0.061371
O       3.81825      5.74781     15.81819         0.055122      0.361969      0.923885
O       0.11340      5.73557      2.74584        -1.676803      0.614012      0.134823
O      15.52401      5.83133     16.02572         0.147288      0.126997      0.199957
O       3.94178      5.79436      7.10012        -1.393677      0.422747      0.637818
O      15.57892      5.90343      7.04847        -0.095230      0.040023      0.335165
O       3.93003      5.79496     11.58553        -0.502779      0.278829      0.060889
O      15.53328      6.01060     11.55164         0.428317     -0.667946     -0.155006
O       3.93904      9.78847      2.64613        -0.491358     -0.063912      0.620682
O       3.84415      9.77370     16.03982        -0.119079     -0.069617     -0.681519
O      15.51216      9.72673      2.74972         0.246159     -0.224204      0.062061
O      15.52983      9.85385     16.08762         0.540120     -0.968616     -0.576493
O       3.75852      9.69529      7.13446         0.991777     -0.097099      0.621498
O      15.59421      9.79751      7.10357        -0.613394     -0.200864      0.407533
O       3.88138      9.72635     11.64627        -0.408901      0.515342     -0.364979
O      15.56132      9.72460     11.76720         0.653123     -0.262898     -0.655986
O       7.69399      1.96462      2.73290         0.742969     -0.382546      0.495489
O       7.78519      1.91432     16.06138        -0.324477      0.171703     -0.521534
O       7.83684     13.58003      2.72413        -1.669298      0.184688      0.640172
O       7.74306     13.56594     16.06465         0.612295      0.672383     -0.475391
O       7.76974      1.91739      7.03567         0.288668     -0.282152      0.746661
O       7.73255     13.68241      7.08057         0.364470     -0.074011      0.531225
O       7.75398      1.94363     11.67733        -0.126816      0.123893     -0.310947
O       7.66717     13.58599     11.59972         0.561800      0.185367     -0.062270
O       7.69635      5.96297      2.78493         0.616516     -0.587603     -0.218985
O       7.69121      5.64669     15.89423         1.281362      0.891977      0.010783
O       7.74896      5.75068      7.13050         1.043725      0.036984      0.578281
O       7.73131      5.83813     11.56324         0.039151      0.167785      0.672196
O       7.82235      9.71415      2.64336        -0.524114     -0.552278      0.319794
O       7.76203      9.70718     15.98010         0.257581      0.277425     -0.340395
O       7.72495      9.82935      7.19319         0.929280     -0.405369      0.114522
O       7.82261      9.76166     11.49352        -1.066835      0.554968      0.284962
O      11.65095      1.97287      2.70000         0.355233     -0.129213      0.435010
O      11.66694      1.90016     15.97104         0.285397      0.790107      0.237423
O      11.70565     13.63589      2.77353        -0.390907     -0.076512      0.532169
O      11.58076     13.69807     15.99620         0.039352     -0.554956      0.060264
O      11.66488      1.92930      7.21818         0.964268     -0.080186     -0.285588
O      11.64869     13.63485      7.08597         0.024294     -0.259785      0.382962
O      11.63433      1.94429     11.50351        -0.343571      0.723955      0.669604
O      11.59674     13.56842     11.61840         1.181976      0.353621      0.066109
O      11.66321      5.68743      2.64212         0.931132      0.030812      0.552821
O      11.65538      5.83210     16.01395         0.298516     -0.030157     -0.218767
O      11.66990      5.79457      7.12159         0.267715     -0.044192      0.212605
O      11.57876      5.84657     11.44562         0.862236     -0.190196      0.435229
O      11.65450      9.79712      2.79040         0.330025     -0.698526     -0.038427
O      11.63865      9.72575     16.04095         0.134431     -0.409086     -0.036393
O      11.64736      9.74375      7.35337         0.565404      0.281656     -0.411525
O      11.71597      9.82622     11.66073        -0.293731     -0.566706     -0.303549
O       2.04246      3.91370      2.83912        -0.093980     -0.818834     -0.047038
O       1.79056      3.87098     15.96737         0.362735     -0.661593      0.238823
O       1.92710      0.02916      2.62769        -0.123892     -0.218040      0.488573
O       1.78873     15.57540     16.01787         0.521048      0.627223      0.294055
O      13.70608      3.86421      2.81339        -0.482032      0.030057      0.139071
O      13.64580      3.83987     15.98524        -0.441880      0.714836      0.113010
O      13.66048      0.01971      2.73415        -0.221329     -0.207846      0.386739
O      13.53132     15.55322     15.95265         0.137931      0.780952      0.171702
O       1.85867      3.85638      7.08053        -0.101536      0.334926      0.490687
O       1.93905     15.55737      7.31081        -0.146016      0.262162     -0.401183
O      13.70352      3.91374      7.11871        -0.318384     -0.262019     -0.157115
O      13.61402     15.55349      7.03321         0.218789      0.568346      0.751423
O       1.82488      3.90812     11.67875         0.117196      0.783110     -0.268300
O       1.93702      0.03424     11.55709        -0.094219     -0.142275      0.286226
O      13.55705      3.98323     11.53664         0.343794     -0.624896      0.527014
O      13.56678      0.12299     11.60920         0.258864     -1.467421      0.377335
O       2.03397      7.82580      2.62949        -0.287559     -1.221627      0.478245
O       1.91053      7.80244     16.01324        -0.230263      0.095849     -0.202816
O      13.59087      7.73347      2.67079         0.104846     -0.096282      0.299535
O      13.64941      7.79037     16.12064        -0.171400     -0.000361     -0.681513
O       1.89140      7.79681      7.02537        -0.032808     -0.183914      0.654464
O      13.54358      7.76910      7.12576         0.331018      0.455515      0.372783
O       2.07719      7.78079     11.49810        -0.651148      0.382031      0.804037
O      13.63623      7.76974     11.53861        -0.522325      0.351533      0.596328
O       1.89847     11.60824      2.66478        -0.037687      0.984722      0.738629
O       1.83619     11.69919     16.06445         0.472953     -0.564232      0.302346
O      13.58786     11.62041      2.74489         0.170970      0.253070      0.087435
O      13.52872     11.69955     16.05066        -0.177565     -0.593409     -0.145884
O       1.99825     11.68438      7.12595        -0.656624     -0.244529      0.132780
O      13.66371     11.75502      7.23023        -0.203603     -0.813683      0.445306
O       1.93281     11.74126     11.67611         0.003283     -0.885699     -0.354278
O      13.69449     11.64183     11.53584        -0.297114      0.771532      0.130707
O       5.89215      3.91009      2.85221        -0.452922      0.016285     -0.838799
O       5.69731      3.85539     15.94635         0.259917     -0.431664      0.352401
O       5.75368     15.58150      2.78918         0.484682     -0.330509      0.092014
O       5.80749     15.56248     16.13218         0.142087      0.118694     -0.284015
O       5.79590      3.87232      7.22684        -0.041857      0.092871      0.109515
O       5.76636      0.06773      7.15504        -0.253427     -1.040378      0.618287
O       5.80725      3.88274     11.59244         0.417776      0.045927      0.048037
O       5.86628      0.03339     11.59020        -0.559501      0.067539     -0.051248
O       5.70905      7.75521      2.65826         0.752159      0.448403      0.031660
O       5.82696      7.81026     15.91826        -0.261237     -0.146132     -0.029897
O       5.91777      7.81400      7.08992        -0.322227      0.004981      0.923638
O       5.82603      7.94698     11.61893        -0.114049     -0.921487     -0.224752
O       5.88074     11.61626      2.76274        -0.190374      0.509558      0.479357
O       5.90868     11.71741     15.90001        -0.728762     -0.347578      0.083975
O       5.81809     11.66389      7.12232        -0.399510      0.957424      0.313689
O       5.72178     11.71306     11.76377         0.545749     -0.523785     -1.166018
O       9.69560      3.83117      2.62974        -0.144248      0.382527      0.808279
O       9.70896      3.86046     16.02570         0.406796      0.578242     -0.141378
O       9.66504     15.55693      2.72424         0.241936      0.241840      0.200675
O       9.79792      0.04059     15.90988        -0.821662     -0.437369      0.423293
O       9.75803      3.78000      7.12954        -0.072349      0.912978      0.369685
O       9.79350     15.54835      7.13908        -0.530206      0.073798      0.132020
O       9.56891      3.89463     11.50865         0.520209     -0.310552      0.423276
O       9.72345     15.58902     11.53183        -0.371067      0.612040     -0.056568
O       9.78924      7.68036      2.72164         0.182263      1.372587      0.405473
O       9.64755      7.77929     16.01204         0.270328     -0.702621     -0.496492
O       9.71563      7.77715      7.03000        -0.043073      0.083949      0.808904
O       9.68081      7.82147     11.52503         0.294026     -0.250302      0.614470
O       9.68771     11.60230      2.78415         0.260849     -0.028211     -0.062081
O       9.78334     11.72213     15.71074        -0.453526     -0.527672      0.505358
O       9.80290     11.64149      7.18458        -0.534494      1.036936      0.201935
O       9.71997     11.69191     11.53637        -0.084366      0.138270      0.381890
