  # total energy = -7882.79334910 
CRSYTAL
PRIMVEC
    15.3600000000000000    0.0000000000000000    0.0000000000000000
     0.0000000000000000   15.3600000000000000    0.0000000000000000
     0.0000000000000000    0.0000000000000000    17.440000000000000
PRESSURE
1.25829 0.723505 2.71525 -0.234423 -0.244509 -0.004873
PRIMCOORD
320 1
Pb       3.87022      3.77611      4.29459        -0.261777     -0.189978     -0.553782
Pb       3.74421      3.83706     17.42877         0.132109     -0.238558     -0.037327
Pb       3.82777     15.30078      4.31683        -0.348013      0.408741     -0.758273
Pb       3.79881     15.25947     17.38773         0.131723      0.488056      0.183326
Pb       0.02765      3.81221      4.28210        -0.143081     -0.150394     -0.246746
Pb      15.27950      3.78629     17.34210         0.428560     -0.076071      0.328045
Pb      15.35484      0.01052      4.36484        -0.070823      0.318694     -0.339168
Pb       0.12349      0.01915     17.36969        -0.844082     -0.296057     -0.145239
Pb       3.86908      3.80036      8.70773        -0.334287      0.128795     -0.702639
Pb       3.83224      0.00338      8.53242        -0.184571     -0.127307      0.341795
Pb       0.12586      3.84261      8.73693        -0.271520     -0.034426     -0.636465
Pb      15.33848     15.28876      8.69658         0.134263      0.543026     -0.274808
Pb       3.84747      3.86499     13.10217         0.255755      0.298265     -0.352806
Pb       3.91087      0.11087     13.08194        -0.320918     -0.227902     -0.836476
Pb       0.02702      3.85710     13.00650        -0.548624     -0.116263     -0.284791
Pb      15.32714     15.29550     13.10496        -0.037277      0.383007     -0.818740
Pb       3.79461      7.65380      4.36293        -0.106930     -0.553097     -0.378807
Pb       3.89516      7.66679     17.35868        -0.630288     -0.131511      0.012154
Pb      15.24986      7.69304      4.31668        -0.142427     -0.241609     -0.066132
Pb       0.02803      7.55114      0.02039         0.259093      0.160792     -0.520417
Pb       3.72314      7.73341      8.59724         0.084792     -0.671496      0.361445
Pb      15.35021      7.72401      8.63684        -0.270333     -0.130772     -0.339760
Pb       3.88725      7.68622     13.00162        -0.446144     -0.383799     -0.117615
Pb      15.26488      7.64737     13.01304         0.375583     -0.175263     -0.481649
Pb       3.93781     11.47375      4.39920        -0.370857      0.571472     -0.626724
Pb       3.68966     11.61325     17.42425         0.314933     -0.519890     -0.302373
Pb      15.25167     11.39118      4.42832         0.078993     -0.055481     -0.327902
Pb       0.00665     11.49124      0.00697         0.042408      0.140549     -0.517331
Pb       3.90077     11.44501      8.63292        -0.734726      0.661607      0.383514
Pb      15.34290     11.61051      8.68898         0.403538     -0.609191      0.001591
Pb       3.78065     11.50454     13.06812         0.007498     -0.035185     -0.764230
Pb      15.31919     11.50750     12.97010        -0.093053     -0.152047     -0.501495
Pb       7.61805      3.87906      4.25864        -0.152474     -0.509830     -0.435421
Pb       7.58184      3.76430      0.06430         0.241154      0.454352     -0.403045
Pb       7.60421     15.23809      4.40866         0.433274      0.555308     -0.594442
Pb       7.79864     15.31955     17.43371        -0.465030     -0.123343      0.217492
Pb       7.66284      3.86915      8.62720         0.121132      0.342264     -0.521269
Pb       7.65666      0.10507      8.73507         0.235457     -0.723004     -0.526224
Pb       7.66072      3.77966     12.95226         0.008722      0.404447      0.225923
Pb       7.62396     15.30345     13.07890         0.192010     -0.337377     -0.748126
Pb       7.72997      7.72110      4.38712        -0.348951     -0.062336     -0.291494
Pb       7.60110      7.72820     17.37615         0.329186     -0.784742      0.023254
Pb       7.76520      7.53555      8.72636        -0.126948      0.206941     -0.744253
Pb       7.76250      7.72717     13.10788        -0.187408     -0.675951     -0.599298
Pb       7.64373     11.50022      4.35192        -0.143958     -0.139570     -0.560442
Pb       7.66856     11.41740     17.37758        -0.215240      0.326252     -0.329802
Pb       7.65159     11.57960      8.69824         0.357833     -0.172762     -0.225582
Pb       7.56742     11.45297     12.99574         0.059163      0.603587     -0.194044
Pb      11.48035      3.91618      4.30920         0.490335     -0.720094     -0.515516
Pb      11.50308      3.83495     17.42643        -0.364657     -0.552809     -0.549454
Pb      11.56729     15.32466      4.44657        -0.151425      0.203684     -0.753060
Pb      11.50447      0.00756      0.07397         0.616595      0.256758     -0.916923
Pb      11.52738      3.69768      8.67468        -0.008382      0.283279     -0.470087
Pb      11.52144      0.10515      8.73392        -0.118932     -0.401420     -0.715439
Pb      11.51479      3.80825     12.96668        -0.115817     -0.176126     -0.203960
Pb      11.52421      0.00488     13.09508        -0.367621     -0.263013     -0.541691
Pb      11.49881      7.60749      4.40325         0.685402      0.388208     -0.674835
Pb      11.49904      7.74792     17.35857        -0.370269     -0.532005     -0.261079
Pb      11.53311      7.68564      8.67415        -0.241783      0.054915     -0.363869
Pb      11.55323      7.59780     13.15222        -0.255993      0.319930     -0.675665
Pb      11.47563     11.57185      4.26572         0.224224     -0.201195     -0.011448
Pb      11.51003     11.49070     17.41489        -0.146534      0.186465     -0.605906
Pb      11.53735     11.51457      8.61556        -0.415581      0.039122     -0.014150
Pb      11.53277     11.55478     13.11563        -0.193269      0.054774     -0.789458
Ti       1.87845      1.85529      2.29672         0.202044      1.054383      2.170363
Ti       1.92872      1.86166     15.30122         0.081378      0.456462      0.894988
Ti       1.86496     13.33001      2.40351         1.000919      1.281419      1.408188
Ti       1.89509     13.36175     15.26766        -0.584429      0.242312      0.897044
Ti      13.35528      1.85693      2.30244         0.684803      0.237994      0.592283
Ti      13.46327      1.86682     15.37006        -1.773446     -0.845737      2.024179
Ti      13.49153     13.37094      2.28212        -0.566796      1.071079      1.123460
Ti      13.42185     13.37222     15.41618        -0.232815      1.498371      2.191071
Ti       1.87542      1.91669      6.69209        -0.331937      0.654266     -1.184168
Ti       1.90105     13.44215      6.64405        -0.280055     -0.244541      1.225710
Ti      13.40495      1.90029      6.65717         0.507331      0.375478      1.677335
Ti      13.46258     13.39447      6.61280        -1.883991      0.653923      0.590918
Ti       1.92966      1.92567     11.05292        -0.808467     -1.212805      0.663614
Ti       1.85897     13.42743     11.06589         0.679201      0.514358     -1.197064
Ti      13.41092      1.89776     10.99923         0.277250     -0.036265     -0.237692
Ti      13.38065     13.44996     10.87366        -0.435306     -0.590425      2.059255
Ti       1.89552      5.75675      2.31341        -0.100707     -0.617298      0.993553
Ti       1.88805      5.67470     15.34680         0.730055      0.716132      0.818411
Ti      13.44084      5.69621      2.25554         0.020393      0.317772      1.892667
Ti      13.42140      5.70657     15.41253        -0.303896      0.042031      0.532238
Ti       1.91093      5.76800      6.60552        -1.095615     -0.738430      2.405922
Ti      13.40269      5.68006      6.69569         1.179574      0.328527     -0.479150
Ti       1.85225      5.70146     11.01987         0.438841      0.726974      0.181972
Ti      13.35184      5.77718     10.88679         0.645456     -0.410981      0.967871
Ti       1.83845      9.57756      2.37732        -0.222443     -0.278723      1.102061
Ti       1.87929      9.51272     15.35517         0.400045      0.155674      1.931394
Ti      13.30362      9.57325      2.23085         1.147658     -0.656538      2.986352
Ti      13.46054      9.58531     15.42506        -0.407386     -0.207014      1.083657
Ti       1.89543      9.58431      6.65062        -2.330308      0.722761      0.118265
Ti      13.35865      9.55955      6.62589         0.508646     -0.110394      0.103050
Ti       1.84394      9.53311     11.05745         0.226801      0.506553     -0.295024
Ti      13.33028      9.59319     10.95271         0.213467     -0.071335      0.992293
Ti       5.76349      1.84357      2.22339        -1.278399      1.078567      0.869053
Ti       5.72694      1.87765     15.43344        -0.557038      1.289166     -0.934497
Ti       5.80278     13.42387      2.21407        -2.204590     -0.189631      0.475528
Ti       5.73697     13.47203     15.36722         0.324486     -0.500880      1.870731
Ti       5.77621      1.89226      6.63745        -0.586232      0.238129     -0.363894
Ti       5.78964     13.39334      6.67736        -0.313668      0.535536      0.914005
Ti       5.78454      1.89705     11.01274        -0.745316     -0.241477      0.700596
Ti       5.68522     13.44207     10.99527        -0.147342      0.133209      1.158750
Ti       5.77985      5.83583      2.39478        -0.977143     -1.100112      2.180929
Ti       5.78764      5.74312     15.35866        -0.709897     -1.572924      0.228696
Ti       5.70313      5.73089      6.69196         0.330136     -0.045819     -0.037790
Ti       5.75353      5.75789     10.95373        -0.121605     -0.131932      1.859901
Ti       5.60908      9.57038      2.27492         1.406524     -0.194557      0.487602
Ti       5.70198      9.60126     15.36752        -0.604271     -0.058108      1.081437
Ti       5.67106      9.52533      6.66780         1.410949      0.085810      2.095202
Ti       5.68951      9.58600     11.00503        -0.439638     -0.244835      1.212461
Ti       9.54689      1.85100      2.31407         0.471201     -0.132687      1.561711
Ti       9.46897      1.81067     15.35116         1.990400      0.993422      0.668302
Ti       9.59619     13.36561      2.25467         0.154790      1.093440      1.142026
Ti       9.55317     13.40349     15.43931         0.677477     -0.405591     -0.668557
Ti       9.52110      1.95121      6.57996         0.703578     -0.948257     -0.473165
Ti       9.59628     13.39974      6.64944         0.248858      0.968359      1.658795
Ti       9.53952      1.89249     10.97080         1.036147     -1.007642      2.113204
Ti       9.62774     13.35499     10.99546        -0.740390      1.800300      1.760766
Ti       9.59614      5.74382      2.29920        -0.568789     -0.740196     -1.834373
Ti       9.56903      5.61156     15.38784        -0.586966      0.618989      1.212453
Ti       9.70182      5.75296      6.54076        -2.311223      0.045787      2.750583
Ti       9.56960      5.74725     10.98110        -1.017771     -0.146076     -0.402836
Ti       9.51579      9.54436      2.30850        -0.283244      0.376082      0.971259
Ti       9.52090      9.54239     15.35772         1.081809     -0.298547      1.362249
Ti       9.51572      9.57197      6.70926         0.323918     -0.033574      1.292878
Ti       9.54087      9.59867     11.03853         0.665006      0.293545      0.252409
O       1.85012      1.89305      0.58546        -0.071220     -0.303767     -2.197168
O       1.98557      1.89882     13.54069        -0.320669      0.070753      0.415503
O       1.88718     13.33091      0.67947        -0.099682      0.070613     -1.873337
O       1.88837     13.30594     13.53304        -0.178263      0.310635     -0.700390
O      13.23305      1.85587      0.54973         0.565074      0.273033     -0.371680
O      13.45204      1.77098     13.67193        -0.240417      0.207186     -2.491747
O      13.45980     13.35293      0.54246         0.207467     -0.103485     -0.283103
O      13.33381     13.51563     13.72139         0.201939     -0.435282     -2.055777
O       1.95265      1.94650      4.90909        -0.298672     -0.069180      0.719307
O       1.92351     13.51820      4.91958         0.065034     -0.336195     -0.741810
O      13.39620      1.84852      4.98048        -0.162668      0.190153     -2.833215
O      13.38616     13.45845      4.85851        -0.004414     -0.404064     -0.395972
O       1.76847      1.89766      9.32127         0.393232      0.058255     -1.353212
O       1.72985     13.41656      9.24434         0.172844      0.321235      0.520741
O      13.38196      1.91008      9.22163        -0.145941     -0.075397     -0.033368
O      13.43742     13.51612      9.16372        -0.217814     -0.123408     -1.242481
O       1.93173      5.71481      0.58737        -0.316256      0.227828     -1.118973
O       1.88085      5.64179     13.61127        -0.355255     -0.089320     -1.203479
O      13.42757      5.75911      0.53821        -0.057066     -0.142964     -1.903633
O      13.42966      5.64219     13.67043        -0.166312      0.406056     -0.442931
O       1.87189      5.73465      4.92030         0.014580      0.070672     -2.077231
O      13.46601      5.71908      4.92452        -0.586018      0.050098     -0.236326
O       1.91018      5.69361      9.25299        -0.028620      0.262829      0.424245
O      13.29400      5.87844      9.14818         0.106899     -0.345661     -0.156012
O       1.90944      9.64335      0.66629        -0.301718      0.091671     -1.312974
O       1.95661      9.57841     13.66148        -0.233935      0.079994     -2.153552
O      13.32926      9.55969      0.52951         0.153156      0.025999     -1.951550
O      13.38182      9.69144     13.71196         0.088160     -0.349792     -1.467268
O       1.82425      9.67157      4.90548         0.518370     -0.175611     -0.572538
O      13.38701      9.66477      4.86193        -0.045097     -0.043414      0.142234
O       1.74182      9.55740      9.30899         0.760439     -0.323640     -0.629668
O      13.32958      9.36787      9.23804        -0.007287      0.385917     -0.871319
O       5.46746      1.95409      0.50994         0.887401     -0.510028     -0.866819
O       5.76726      1.82863     13.59482        -0.217549      0.368234      0.502070
O       5.67746     13.45475      0.46956         0.169283     -0.347541     -0.768952
O       5.81630     13.47292     13.65401        -0.328761     -0.127614     -0.745186
O       5.86074      1.87029      4.88807        -0.171367     -0.014379     -0.388387
O       5.83392     13.33300      4.94457        -0.175503      0.216362     -1.121258
O       5.69354      1.93000      9.27141         0.265140     -0.338607     -0.803899
O       5.69229     13.48012      9.27289        -0.093048     -0.173064     -1.591509
O       5.75368      5.93779      0.74197        -0.150544     -0.158838     -3.720962
O       5.66535      5.55168     13.63002         0.370136      0.384067     -0.653583
O       5.60820      5.71964      4.96195         0.455798      0.115328     -1.490117
O       5.75219      5.65057      9.22736         0.008972      0.406457     -0.969942
O       5.72160      9.40107      0.52543        -0.003135      0.480532     -0.441297
O       5.66405      9.72760     13.63967         0.094591     -0.601715     -0.936988
O       5.66024      9.67597      4.98369         0.065344     -0.208726     -1.958717
O       5.63233      9.54008      9.29582        -0.100659      0.207030     -1.702754
O       9.49237      1.75732      0.58947         0.311728      0.421550     -1.359097
O       9.56165      1.88792     13.59306        -0.192536     -0.135020     -0.142722
O       9.52244     13.44153      0.52705         0.038744     -0.433549     -0.981609
O       9.54839     13.45830     13.66503         0.120263     -0.136926      0.280926
O       9.57907      1.82385      4.81614        -0.290059      0.282213      0.261616
O       9.58652     13.52773      4.92892        -0.228220     -0.599676     -1.275153
O       9.61506      1.95857      9.27594        -0.340212     -0.197455     -2.514568
O       9.53549     13.33095      9.30341        -0.001973      0.093698     -2.445852
O       9.45609      5.68372      0.46677         0.474229      0.141717      1.392498
O       9.49097      5.64286     13.65312         0.421478     -0.071085     -1.229838
O       9.63295      5.85154      4.82355        -0.032989     -0.046996     -1.601867
O       9.44776      5.74450      9.18842         0.161398     -0.057155      0.787051
O       9.53918      9.61255      0.58497        -0.002919     -0.223436     -0.977646
O       9.50174      9.54386     13.64350         0.119276      0.140364     -1.734798
O       9.55466      9.46228      5.00565        -0.298880      0.106390     -2.185516
O       9.66020      9.60422      9.30949        -0.495006     -0.116820     -0.612761
O       3.76649      1.94838      2.66707         0.962424     -0.897951      0.533347
O       3.79710      1.90455     15.80224        -0.937065     -0.179663     -0.322608
O       3.87262     13.51474      2.64459        -0.446737     -0.233320      0.685028
O       3.81016     13.34294     15.78362         0.232092      0.300026     -0.217297
O      15.32581      1.87365      2.73713        -0.564077      0.516178      0.028701
O      15.32652      1.80829     15.67329         1.283192      0.117576      0.525867
O       0.00698     13.43306      2.76382        -0.513975     -0.332097     -0.032088
O      15.35162     13.44780     15.72237         0.288343     -0.070902      0.250663
O       3.82814      1.91471      6.92236         0.022510     -0.252811      0.903466
O       3.75149     13.50054      7.02699         0.583754     -0.420150      0.113871
O      15.31676      1.95448      6.99222         0.297977      0.214922      0.484553
O      15.22324     13.39064      7.04250         1.756030      0.184682      0.111092
O       3.77964      1.90215     11.42350         1.087416      0.428818      0.035825
O       3.74131     13.44783     11.38182         0.730360     -0.031473      0.408447
O      15.26451      1.83451     11.47032         0.085230     -0.134668      0.265270
O      15.28374     13.30693     11.40679        -0.432388      0.713281      0.334152
O       3.77415      5.87336      2.76700         0.493588      0.056694      0.186744
O       3.72246      5.64081     15.64347         1.277969      0.359004      0.738909
O      15.29156      5.64490      2.67274         0.617698      0.431443      0.069107
O       0.03222      5.76833     15.81620        -1.653437     -0.027692      0.274102
O       3.75811      5.66871      7.00799         0.492328      0.553900      0.640652
O      15.30286      5.65257      7.06373         0.291681      0.317378      0.269089
O       3.78226      5.73730     11.48590         0.453217     -0.476873     -0.378707
O      15.28154      5.78451     11.40607         0.129379      0.007033      0.011249
O       3.80486      9.37572      2.69373        -0.347636      0.551620      0.374367
O       3.79250      9.55599     15.81128         0.335704      0.197238      0.089625
O      15.26784      9.66441      2.81703         0.475503     -0.105882     -0.537353
O      15.35769      9.48003     15.77844        -0.495392      0.342433      0.344525
O       3.72300      9.57054      7.07324         1.263918      0.211528      0.218474
O      15.33192      9.52088      6.99879        -0.535345      0.466868      0.295859
O       3.80478      9.51715     11.42684        -0.437307      0.162919      0.274428
O      15.32102      9.60612     11.32809        -0.654383     -0.202619      0.965568
O       7.67511      1.96978      2.58859        -0.356321     -0.139206      0.297285
O       7.57663      1.83760     15.82100         0.951704      0.185974      0.173745
O       7.55306     13.30805      2.62756         2.486400      0.053659      0.605013
O       7.67025     13.40223     15.80782        -0.769062      0.067280      0.137224
O       7.63312      1.78468      7.00246         0.325796      0.899608      0.669766
O       7.62406     13.37486      7.11712         0.486908     -0.056246      0.054393
O       7.69893      1.73524     11.37155        -0.687533      0.255843      0.044973
O       7.54566     13.49342     11.37537         1.023691     -0.321442      0.428385
O       7.61563      5.61882      2.65101         1.134447      0.165454      0.800191
O       7.63598      5.71306     15.72779        -0.308678     -0.136523      0.355679
O       7.60870      5.79372      7.00691         0.677059      0.041796      0.328995
O       7.68909      5.75309     11.50294        -0.625607      0.089392     -0.366642
O       7.61332      9.79559      2.71154         0.776198     -1.021849      0.167344
O       7.63974      9.53684     15.69998        -0.037823     -0.112161      0.496382
O       7.62621      9.60141      7.10373        -0.568487     -0.172785      0.025299
O       7.52977      9.57205     11.43838         1.715159      0.095324      0.240138
O      11.50958      1.90421      2.72496        -0.610794     -0.076042      0.266718
O      11.47253      1.79272     15.70568        -0.879587      0.661235      0.304188
O      11.51159     13.44123      2.67891        -0.029972     -0.424864     -0.037767
O      11.53163     13.41722     15.79529        -0.732630     -0.587919      0.379677
O      11.43234      1.93206      7.00755        -0.328121     -0.143088      0.660762
O      11.50037     13.39819      7.03872        -0.182368      0.224451      0.130405
O      11.47568      1.88323     11.26539         0.727130      0.757815      0.948561
O      11.48265     13.29489     11.44632         1.226834      0.099523      0.024874
O      11.52035      5.85064      2.64773        -0.824302     -0.206044      0.293366
O      11.44780      5.62201     15.70655         1.055719      0.139546      0.322716
O      11.42548      5.67361      7.06217         1.258033      0.397591     -0.050057
O      11.39264      5.75192     11.39804         1.481911     -0.174794      0.276182
O      11.48480      9.50998      2.71963        -0.955098      0.125840     -0.055285
O      11.47711      9.55140     15.76807         0.148408      0.286762      0.360871
O      11.43270      9.57658      6.97433         1.051489     -0.168133      0.593032
O      11.46076      9.59406     11.42231        -0.009386     -0.351982      0.523708
O       1.95563      3.82830      2.71100        -0.344833      0.409817      0.224728
O       1.78407      3.79294     15.86118         0.215785     -0.858445     -0.498680
O       1.81807      0.05068      2.83036         0.620827     -1.520115     -0.162595
O       1.91892     15.28064     15.76783         0.089524      0.517620     -0.205561
O      13.39071      3.82560      2.72486        -0.344387     -0.121997     -0.055629
O      13.40083      3.76562     15.81002         0.258275      0.845421      0.146206
O      13.41666     15.35205      2.69557         0.060526     -0.817826      0.142397
O      13.35319      0.00554     15.88389         0.655125     -0.899990      0.074182
O       1.88400      3.85404      7.18081         0.195179     -0.668579     -0.155230
O       1.75032      0.00157      7.05738         0.449616     -0.354414      0.196033
O      13.32107      3.84033      7.00719        -0.148892     -0.474987      0.654119
O      13.39785      0.04530      6.98917        -0.211226     -1.470159      0.559084
O       1.74265      3.80377     11.35728         0.374475      0.537455      0.388947
O       1.92027      0.02719     11.45329        -0.641608     -0.785766      0.318262
O      13.52333      3.88064     11.33612        -1.032913     -0.360051      0.165302
O      13.28694     15.28556     11.31228         0.439007      0.454227      0.355288
O       1.73743      7.67426      2.70081         0.120157     -0.030522      0.285187
O       1.93195      7.67230     15.81397        -0.256108     -0.705424      0.030385
O      13.45273      7.65750      2.77609        -0.033153      0.267154     -0.439313
O      13.34048      7.63350     15.85713         0.239955     -0.302735     -0.387925
O       1.79507      7.69189      7.04625         0.833311     -0.564401      0.084764
O      13.47578      7.65773      6.93410        -0.898827      0.066533      0.468106
O       1.84643      7.61676     11.51402         0.097398      0.384647     -0.060349
O      13.42140      7.61590     11.46481        -0.562981      0.474082      0.330836
O       2.01918     11.51043      2.75321        -0.127662     -0.592869      0.356924
O       1.85249     11.52609     15.69072         0.073469     -0.584224      0.769492
O      13.46664     11.47265      2.73323        -0.698179      0.391735     -0.295361
O      13.47564     11.47967     15.88666        -0.165558     -0.244651     -0.104247
O       1.77947     11.50479      7.13824         0.631683      0.322300     -0.333555
O      13.38684     11.46291      7.15000         0.158689      0.202716     -0.537336
O       1.92520     11.52817     11.32081        -0.118414     -0.988286      0.900048
O      13.34135     11.46812     11.27030         0.360940      0.096240      0.372416
O       5.70292      3.73972      2.61835         0.029089      1.075938      0.710617
O       5.62078      3.79835     15.87353         0.748731      0.425404      0.042090
O       5.78906     15.33536      2.59563         0.179094     -0.298640      0.516982
O       5.73844      0.05941     15.74001        -0.503631     -2.261373      0.332319
O       5.75631      3.84001      7.05091         0.012863     -0.912947      0.361222
O       5.75642     15.32763      7.01838        -0.183651     -0.043914      0.348200
O       5.81876      3.79949     11.30277        -0.138481      0.091164      0.491742
O       5.70732     15.35953     11.44339        -0.325351      0.130271      0.225450
O       5.91790      7.71058      2.77811        -0.369916      0.363043      0.587689
O       5.74886      7.57974     15.81783        -0.338817      0.806687     -0.334807
O       5.65565      7.64813      7.01996        -0.266211      0.651513      0.290116
O       5.71702      7.62158     11.43037         0.083403     -0.013928      0.003451
O       5.70281     11.43799      2.76008        -0.838438      0.452076     -0.152067
O       5.77984     11.41666     15.75223        -0.082016      1.371537      0.360580
O       5.69415     11.52281      7.03311        -0.465730     -0.741145      0.569048
O       5.68002     11.51374     11.41145        -0.086179     -0.067474      0.096028
O       9.61846      3.84284      2.70398         0.103764      0.111477      0.149239
O       9.48606      3.73530     15.88891         0.065710     -0.468129     -0.237835
O       9.56487     15.28923      2.65199        -0.429090     -0.198867      0.282411
O       9.59376     15.29555     15.90059        -0.529752      0.263257     -0.360478
O       9.51554      3.84930      6.92366        -0.281471     -0.201313      0.197571
O       9.45696     15.34225      6.96135         0.466464     -0.123002      0.783083
O       9.50753      3.78835     11.34426         0.200049      0.433189      0.325242
O       9.78578     15.24760     11.33281        -0.841989      1.239524      0.294721
O       9.37398      7.60632      2.69626         0.413412      1.149934      0.033701
O       9.60084      7.60493     15.66162        -0.079467      0.404236      0.427622
O       9.63131      7.63479      7.13199        -0.570694      0.061946     -0.123615
O       9.54791      7.68490     11.40288        -0.183140     -0.181806      0.402961
O       9.61757     11.49872      2.69682         0.078194     -0.188305      0.256143
O       9.58193     11.46304     15.80394        -0.159969      0.140041      0.255645
O       9.62442     11.49562      7.07387        -0.568259      0.014218      0.056598
O       9.58085     11.56005     11.37924        -0.761805     -2.409089      0.930138
