  # total energy = -7880.44139030 
CRSYTAL
PRIMVEC
    15.2000000000000000    0.0000000000000000    0.0000000000000000
     0.0000000000000000   15.2000000000000000    0.0000000000000000
     0.0000000000000000    0.0000000000000000    17.000000000000000
PRESSURE
7.62104 7.5113 3.58992 -0.07506 0.043344 -0.007241
PRIMCOORD
320 1
Pb       3.74204      3.85812      4.22135         0.159359     -0.536332      0.351045
Pb       3.73563      3.82674      0.08319         0.362466     -0.256284     -0.169221
Pb       3.70793      0.01682      4.32914         0.349930      0.295225      0.062450
Pb       3.86753     15.19830      0.03041        -0.195989     -0.065433     -0.265833
Pb      15.08608      3.89905      4.19606         0.434450     -0.624285      0.162445
Pb      15.16408      3.67854     16.98730         0.399721      0.438130     -0.368316
Pb       0.01254      0.07241      4.19324        -0.184974     -0.137086      0.563627
Pb       0.03314      0.00952     16.88138        -0.019731     -0.262895      0.507347
Pb       3.77572      3.67568      8.49675         0.008570      0.346415     -0.084161
Pb       3.74496     15.15375      8.47202         0.039334      0.041102      0.051866
Pb      15.09454      3.82148      8.43812         0.333479     -0.523056      0.850807
Pb       0.03246     15.13798      8.66665        -0.377080      0.298922     -0.459057
Pb       3.77528      3.84949     12.78771        -0.081277     -0.812040     -0.251777
Pb       3.81677     15.10175     12.65461         0.036560      0.330478      0.267073
Pb       0.06107      3.55255     12.77659        -0.453524      1.063910     -0.218508
Pb       0.02751     15.14675     12.68710        -0.455726     -0.166582      0.138632
Pb       3.63499      7.67959      4.25465         0.694638     -0.033350     -0.096096
Pb       3.92712      7.57903      0.07382        -0.582570     -0.177275      0.399575
Pb      15.18554      7.62454      4.16797         0.170776      0.755186      0.559779
Pb       0.18898      7.66355     16.97669        -0.615635     -0.218221     -0.429713
Pb       3.69807      7.56293      8.47158         0.395984      0.132340     -0.176576
Pb      15.13473      7.54266      8.51879         0.194053      0.175331     -0.161677
Pb       3.85460      7.60826     12.68730         0.016662      0.078209      0.274182
Pb      15.15308      7.51883     12.67641        -0.326122      0.066457      0.243342
Pb       3.66302     11.45126      4.24861         0.527085     -0.263929      0.527922
Pb       3.82571     11.36803      0.07622         0.243830      0.446285     -0.584457
Pb      15.13068     11.44089      4.20473        -0.139534     -0.383612      0.279563
Pb       0.07832     11.42128     16.98614        -0.127676      0.108894     -0.183343
Pb       3.79239     11.33287      8.43786        -0.236570      0.224903      0.007110
Pb      15.03697     11.35483      8.50722         0.791909      0.093952      0.084804
Pb       3.81016     11.31291     12.73760        -0.111039      0.261046     -0.254607
Pb       0.02233     11.35314     12.62487        -0.150024     -0.171916      0.191761
Pb       7.59185      3.75126      4.11927         0.387546      0.400472      1.071595
Pb       7.56530      3.77091     16.94326        -0.180035      0.038894      0.361419
Pb       7.60790      0.09536      4.22282        -0.004599     -0.105260     -0.394431
Pb       7.56857      0.00202      0.01757         0.145507      0.059092      0.155409
Pb       7.62845      3.91258      8.34849        -0.450550     -0.953093      0.733481
Pb       7.55721     15.12903      8.33772         0.032770      0.200372      1.229817
Pb       7.49461      3.74733     12.69736         0.658266      0.029000      0.120885
Pb       7.65780      0.09487     12.67718        -0.397083     -0.617798      0.272850
Pb       7.56176      7.68669      4.42521         0.072313     -0.529814     -0.920870
Pb       7.43801      7.57382     16.93068         0.776827     -0.010083      0.563116
Pb       7.63147      7.55294      8.47932        -0.285719      0.620859      0.196173
Pb       7.67755      7.49633     12.78694        -0.733246      0.294106     -0.384054
Pb       7.63000     11.41089      4.16565        -0.373419      0.015277      0.219384
Pb       7.69984     11.35291     16.99345        -0.579965     -0.113647     -0.105186
Pb       7.51496     11.37995      8.33788         0.520535      0.240825      1.174473
Pb       7.50542     11.22124     12.71573         0.157933      0.539048      0.122376
Pb      11.45926      3.61383      4.19342        -0.296688      0.741071      0.303559
Pb      11.44995      3.79465      0.01194        -0.053562      0.305708     -0.318193
Pb      11.37410      0.02460      4.21216        -0.139208      0.014313     -0.264280
Pb      11.39788     15.12521     16.88561        -0.259738      0.161400      0.890529
Pb      11.30053      3.78194      8.47063         0.623994      0.098690     -0.169455
Pb      11.28887     15.14421      8.48316         0.301970      0.517555      0.892571
Pb      11.43062      3.81144     12.78583         0.166127     -0.150993     -0.278900
Pb      11.37226     15.11984     12.85309         0.006104      0.365163     -0.647911
Pb      11.39759      7.70499      4.21525        -0.080961     -0.284563      0.540604
Pb      11.28955      7.51661     16.99888         0.517818      0.167178     -0.631047
Pb      11.32025      7.55964      8.35069         0.242704     -0.281124      0.835597
Pb      11.27633      7.41856     12.67300         0.692137      0.383001      0.327224
Pb      11.43589     11.47808      4.16979         0.025197     -0.593478      0.248417
Pb      11.31509     11.38239      0.08905         0.417143      0.080759     -0.746719
Pb      11.32647     11.42107      8.52767        -0.449123      0.128460     -0.192549
Pb      11.46031     11.38816     12.95203        -0.247412     -0.280249     -1.088865
Ti       1.90873      1.85181      2.22818         0.022148      0.144621      0.699405
Ti       1.90107      1.88304     14.94421         0.770815     -0.681393     -0.926645
Ti       1.86496     13.31397      2.29905        -0.538346      1.306685     -0.697467
Ti       1.90119     13.32861     15.02460         0.912685     -0.799823     -0.013744
Ti      13.32997      1.87646      2.10681        -0.305302     -0.020172      0.568183
Ti      13.26799      1.84205     14.96177         0.868352      0.858640     -0.337187
Ti      13.26903     13.36371      2.25251         0.285809     -0.447008     -0.581731
Ti      13.24539     13.27275     15.03818         0.539118     -0.547647      1.193808
Ti       1.89393      1.87754      6.55400        -0.054710      0.505986     -0.072928
Ti       1.78538     13.27683      6.50601         0.522291      0.309550      0.317827
Ti      13.34612      1.85856      6.49508        -0.376814      0.093179      0.141647
Ti      13.22109     13.36749      6.52372         0.189518     -0.296552      0.700274
Ti       1.90258      1.83741     10.69112         0.600254      1.166259      1.283251
Ti       1.85931     13.23333     10.70444        -0.123531     -0.612777     -0.482794
Ti      13.29747      1.85090     10.76912        -0.486272      0.266020      0.475807
Ti      13.14382     13.21618     10.71116         0.704664      0.876098      1.046587
Ti       1.91284      5.68192      2.27576         0.143158     -0.016598     -0.287741
Ti       1.92518      5.69277     15.00496         0.147220      0.441180      0.595686
Ti      13.32736      5.81820      2.22852        -0.464565     -1.304452     -0.451328
Ti      13.40193      5.67213     15.04920        -0.760964      0.619506     -1.171190
Ti       1.92521      5.71137      6.53580        -0.524999     -0.401666      0.666159
Ti      13.35678      5.69405      6.49596        -1.317418     -0.071589      1.018912
Ti       1.91553      5.65211     10.75448        -1.736374     -0.706884      0.510631
Ti      13.31871      5.63272     10.72002         0.223856     -0.590560     -0.261822
Ti       1.92524      9.56771      2.17123        -0.613270     -0.566493      2.220155
Ti       1.96201      9.53877     14.97392        -0.249450     -0.333363      0.162534
Ti      13.26369      9.51222      2.12979         0.456419      0.090579      0.204428
Ti      13.31958      9.53119     14.96434         0.406569     -1.297777      0.869765
Ti       1.89211      9.52982      6.46599        -0.301155     -0.380216     -0.414581
Ti      13.27368      9.54927      6.56266         0.595533     -0.472374     -1.419812
Ti       1.89879      9.44241     10.62377        -0.838349      0.524949      0.166018
Ti      13.18729      9.46945     10.62459         0.632833     -0.108749      1.193215
Ti       5.70212      1.90037      2.32200        -0.029959     -0.402112     -1.028762
Ti       5.68116      1.84333     14.97585        -0.324687      0.449317     -0.057126
Ti       5.65928     13.28405      2.31681         0.161475      0.567963     -0.198463
Ti       5.77733     13.27743     14.96085        -1.294111     -0.371001      0.026978
Ti       5.72974      1.87535      6.52662        -0.819588      0.776571     -0.284088
Ti       5.62129     13.31072      6.46349        -0.212092     -0.826704     -0.714683
Ti       5.70336      1.84513     10.64893        -0.293370      0.150438     -0.049924
Ti       5.62338     13.27145     10.63160         1.386593     -0.239354      1.585240
Ti       5.74862      5.68493      2.33222        -0.317233      0.706596     -1.190282
Ti       5.61917      5.63520     15.07596         0.117352     -0.044357      0.392863
Ti       5.64116      5.74818      6.41674        -0.302917     -1.084038     -0.428726
Ti       5.65092      5.58584     10.68258         0.425284      1.489531      0.737465
Ti       5.73111      9.50180      2.26551        -0.915000     -1.119197     -0.282256
Ti       5.64907      9.49791     15.02376         0.369416     -0.359964      0.287883
Ti       5.70790      9.49421      6.48691        -0.856774     -0.198404     -0.193412
Ti       5.69871      9.46815     10.64330         0.654490     -0.070248      0.923470
Ti       9.58381      1.99202      2.11671        -1.963034     -1.486406      0.606836
Ti       9.55605      1.89264     15.02100        -0.684699     -0.173554     -0.057284
Ti       9.45760     13.32370      2.20973         0.181685      0.713075      0.207091
Ti       9.42455     13.24574     14.96231         0.318952      0.439158      0.516222
Ti       9.52822      1.84253      6.46152        -0.034508      1.024663     -0.045407
Ti       9.44534     13.29408      6.37299         0.358872     -0.156278      0.594655
Ti       9.54357      1.91034     10.68639         0.057434      0.176279      0.672722
Ti       9.38548     13.29323     10.82291        -0.357257     -0.706938     -0.603029
Ti       9.61735      5.77312      2.28300        -1.770637     -1.394039      0.006734
Ti       9.47884      5.62499     15.00734         0.841808      0.712963     -0.765340
Ti       9.41720      5.69664      6.48441         1.484900      0.154227     -1.691540
Ti       9.44580      5.68350     10.69720         0.218225     -0.613624      0.288250
Ti       9.48402      9.50472      2.12514        -0.284550     -0.387052      0.422954
Ti       9.49889      9.40791     14.93127        -0.103807      0.053984      0.850392
Ti       9.54132      9.54054      6.42459        -1.874437     -0.411569      0.153103
Ti       9.47860      9.54210     10.71895        -0.488248     -0.325755      0.003044
O       1.81779      1.75290      0.49575         0.155647      0.249961     -0.834360
O       1.87668      1.84251     13.09008         0.497665     -0.282595      1.037451
O       1.78012     13.29573      0.50151         0.296381      0.258376      0.413268
O       1.99522     13.11740     13.23863        -0.254363      0.656615     -0.132334
O      13.26151      1.87708      0.33030         0.435615     -0.131714      0.410682
O      13.30586      1.94335     13.16452        -0.070260     -0.481007      0.540414
O      13.29180     13.44263      0.48338         0.041058     -0.611852      0.217725
O      13.18066     13.25852     13.30795         0.024325     -0.389967     -0.897827
O       1.95762      1.86165      4.79150        -0.454850      0.160451     -0.393975
O       1.84532     13.32558      4.72628        -0.251680     -0.125523      0.548534
O      13.30852      1.91110      4.68174        -0.159428     -0.187149      0.601420
O      13.24743     13.15838      4.77572        -0.360239      0.602381     -0.524326
O       1.87115      1.92671      8.96563         0.020021     -0.351430     -1.276557
O       1.80914     13.26972      8.91539         0.096604     -0.207103      0.290410
O      13.25808      1.86228      9.00982         0.084920      0.066930     -0.220975
O      13.22024     13.27862      8.94707        -0.232506     -0.059952     -0.093218
O       1.92103      5.71367      0.51424        -0.513206     -0.291210      0.243323
O       2.08335      5.74673     13.24959        -0.524386     -0.227778      0.079891
O      13.41803      5.77220      0.45807        -0.330782     -0.140699      0.217896
O      13.33127      5.60879     13.23298        -0.206422      0.311702      0.704991
O       1.86601      5.64124      4.79428        -0.084335     -0.026757     -1.268091
O      13.45533      5.70668      4.74018        -0.404654      0.014312     -0.381438
O       1.95086      5.72589      8.99661        -0.260556      0.169821     -0.461984
O      13.30763      5.51923      8.88734         0.051549      0.731647      1.300675
O       1.96411      9.56491      0.44580        -0.284097     -0.036581     -0.204134
O       1.92622      9.52444     13.20062         0.093945      0.123013     -0.446270
O      13.17468      9.34191      0.37818         0.543320      0.462215      0.632480
O      13.35712      9.61971     13.20002        -0.186991      0.005865     -0.019384
O       1.94024      9.53489      4.66155        -0.351952     -0.039050      0.299592
O      13.23082      9.48475      4.73948        -0.030931      0.135592      1.070374
O       1.89239      9.48662      8.82779         0.211102     -0.275243      0.860977
O      13.06674      9.49552      8.85845         0.532527      0.329283     -0.457121
O       5.83657      1.82142      0.49950        -0.321370      0.226203      0.529115
O       5.59175      1.86417     13.18979         0.175844     -0.078303      0.454917
O       5.68343     13.35652      0.53297        -0.120841     -0.285318      0.564512
O       5.72121     13.32738     13.18965        -0.364730     -0.089364      0.700116
O       5.55423      1.93746      4.73682         0.519686     -0.312746      0.151056
O       5.65642     13.23257      4.67807         0.151213      0.230769      0.220883
O       5.83697      1.78347      8.88037        -0.544647      0.470378      0.161541
O       5.56549     13.24607      8.89682         0.462903      0.045498     -0.969073
O       5.63390      5.64693      0.41642         0.628993     -0.067988      1.203555
O       5.59998      5.68411     13.31499        -0.248362     -0.167838     -0.446295
O       5.65769      5.61368      4.59381        -0.243026      0.399539      1.432126
O       5.63311      5.69364      8.93867         0.178710     -0.049772      0.223396
O       5.67697      9.41224      0.43868         0.253028      0.453326      0.982078
O       5.72754      9.38052     13.25269        -0.441861      0.406505      0.235534
O       5.74229      9.39339      4.70300         0.055471      0.174175     -0.048702
O       5.63831      9.55728      8.89007        -0.019761     -0.419304     -0.113932
O       9.54578      1.87576      0.34929        -0.222033      0.455729     -0.242347
O       9.64661      1.95877     13.24731        -0.519542     -0.313099      0.089094
O       9.52404     13.28836      0.43343        -0.181852     -0.259298      0.405872
O       9.33139     13.32109     13.21431         0.520790     -0.078321     -0.261949
O       9.60228      1.75184      4.68184        -0.088167      0.180322      0.552304
O       9.45902     13.24682      4.58354         0.163939      0.341208      0.852278
O       9.49060      2.00539      8.92524        -0.015976     -0.443106     -0.145549
O       9.31467     13.27115      9.01612         0.642437     -0.118977      0.732912
O       9.62173      5.60065      0.48227        -0.194380      0.228831      0.484277
O       9.56330      5.75513     13.15718        -0.095473     -0.493523      0.919518
O       9.47304      5.84301      4.69489        -0.099613     -0.225101      0.578084
O       9.36056      5.73450      8.89372         0.248441     -0.165492      0.127564
O       9.51343      9.54567      0.32674         0.014413     -0.203813      0.917183
O       9.38489      9.31319     13.16462         0.528230      0.409404      0.402649
O       9.35952      9.35963      4.62354         0.361820      0.446081      0.771652
O       9.41937      9.57153      8.92395         0.322495     -0.127853      0.349362
O       3.78916      1.72482      2.59880         0.179217      1.006880     -0.218770
O       3.77327      1.85696     15.43503         0.889819     -0.690114     -0.152633
O       3.69701     13.32421      2.72192         1.302100     -0.059642     -0.574943
O       3.77638     13.35406     15.47242         1.173006      0.041325     -0.287981
O      15.15218      1.78015      2.54024        -0.194061      0.244108     -0.073271
O       0.04095      1.83360     15.24405        -1.086616      0.064172      0.419772
O      15.13498     13.37431      2.77224        -0.176971     -0.056044     -0.606631
O       0.00713     13.21994     15.38269        -0.245014      0.015985     -0.229137
O       3.77548      1.92548      6.88154         0.117435     -0.165723      0.444649
O       3.78548     13.20061      6.80903        -0.989345      0.061293      0.055451
O      15.19640      1.70177      6.99265        -0.609296      0.522137     -0.650234
O      15.07746     13.42718      6.94151         0.846551     -0.285179     -0.336373
O       3.80622      2.03135     10.97792        -0.015091     -0.361871      0.065945
O       3.82222     13.04665     11.03017        -1.248538      0.713252      0.222434
O       0.04117      1.71306     11.13618        -0.809031     -0.084399     -0.173972
O      15.08445     13.32627     11.11032         0.956442      0.059782     -0.166338
O       3.76885      5.65457      2.57875        -0.475350     -0.537286      0.280973
O       3.74047      5.67995     15.59580         0.405954     -0.349930     -0.875088
O      15.14992      5.71277      2.68171         0.520805     -0.105549     -0.286227
O       0.09089      5.57056     15.39758        -0.074809      0.116688      0.105396
O       3.79187      5.68499      6.92702         0.165680     -0.114848     -0.363939
O      15.18787      5.68605      7.02197         0.266326      0.605994     -0.706630
O       3.70895      5.53064     11.14110         1.948306      0.757680     -0.277592
O      15.16307      5.65718     11.25906         0.484234      0.497517     -0.722494
O       3.72928      9.49083      2.62965         0.382623      0.450535     -0.173171
O       3.78860      9.39671     15.49261         0.914963      0.649008     -0.564154
O      15.18416      9.49510      2.59434        -0.172567      0.053078     -0.482831
O       0.12383      9.57669     15.37643        -1.267371      0.143234      0.162621
O       3.76150      9.51235      6.76055         0.491033     -0.039097      0.368669
O       0.01749      9.50229      6.79223        -1.545545     -0.192479      0.476102
O       3.82094      9.53834     11.09588        -0.801367     -0.171747     -0.418924
O      15.13140      9.61532     10.84434         0.467011     -0.841122      0.288106
O       7.64230      1.90304      2.73536        -0.497960     -0.028944     -0.649327
O       7.61627      2.03403     15.31734        -0.158446     -0.459690     -0.206883
O       7.58093     13.22340      2.55890        -0.542172      0.038094      0.164484
O       7.62196     13.20323     15.52468        -0.586344      0.279545     -0.478565
O       7.60161      1.86889      6.75075         0.060943     -0.376345     -0.026830
O       7.58675     13.30369      6.75586        -0.239957      0.145318     -0.108538
O       7.57805      1.84825     11.12054         0.343625     -0.098301     -0.028797
O       7.51534     13.37947     11.22032         0.165607      0.137720     -0.680780
O       7.57089      5.56755      2.66294         0.917564      0.885218     -0.600415
O       7.61133      5.58846     15.28512        -0.606353      0.183977      0.218946
O       7.50949      5.71376      6.78908         0.280338      0.332289      0.083325
O       7.56886      5.65063     11.12530        -0.366391      0.272583     -0.180233
O       7.55585      9.40216      2.55673         0.713819      0.285421     -0.067752
O       7.56682      9.36414     15.40033         0.388291      0.540564     -0.232265
O       7.53084      9.52637      6.97660         1.265630     -0.776287     -1.046389
O       7.60069      9.37679     11.14116        -0.522154      0.114763     -0.364269
O      11.33294      1.87374      2.53721         1.991617     -0.208910      0.272714
O      11.44869      1.77966     15.34245        -0.530497      0.502361     -0.060144
O      11.35684     13.21010      2.63765         0.037816      0.467565     -0.259760
O      11.32161     13.22895     15.48176         0.601597     -0.075756     -0.838240
O      11.39023      1.98235      6.80143        -0.034355     -0.121379      0.158774
O      11.31291     13.40192      6.96552        -0.452570     -1.134333     -0.799126
O      11.42326      2.04828     11.13884        -0.719933     -0.444262     -0.330696
O      11.33462     13.17738     11.27367        -0.443797     -0.106659     -0.415778
O      11.41308      5.71093      2.75230         0.757854      0.050731     -0.501057
O      11.46743      5.66747     15.45196        -0.162310      0.352346     -0.244975
O      11.36510      5.64334      6.88016         0.222615      0.270242     -0.299287
O      11.41035      5.61907     11.04082        -0.474628     -0.059296     -0.034006
O      11.35154      9.47530      2.59170         0.003251      0.135792     -0.312732
O      11.44125      9.37347     15.33384        -0.545962      0.452660     -0.525027
O      11.29572      9.54435      6.82895         1.328787     -0.077686     -0.119291
O      11.35565      9.60354     11.08923        -0.109616     -0.317679      0.148914
O       1.82031      3.70903      2.62045         0.057862      0.951046     -0.026079
O       1.90871      3.65673     15.40522         0.200298      1.967349      0.050131
O       1.87948      0.03122      2.79043        -0.295452     -0.783777     -0.410103
O       1.91558      0.01273     15.35942        -0.251587     -0.840874     -0.126356
O      13.23764      3.74525      2.50801         0.268750      0.559458      0.114931
O      13.28987      3.73830     15.36221         0.250179     -0.145613      0.306606
O      13.15637      0.00133      2.59169         0.109185      0.375124      0.251547
O      13.30495     15.15157     15.32943        -0.011317     -0.076970     -0.190000
O       1.83420      3.82492      6.94086         0.113647     -0.609873     -0.258486
O       1.97576     15.19220      6.87373        -0.219371     -0.853549      0.172123
O      13.32166      3.78687      6.84946         0.240186     -0.542056     -0.428193
O      13.07334      0.01218      6.98060         0.755196      0.326904     -0.789143
O       1.76545      3.75254     11.11351         0.200490      0.107240     -0.125846
O       1.98077     15.10565     10.90818         0.192377     -0.009150      0.796409
O      13.42421      3.76576     11.17306        -0.193904     -0.223191     -0.421614
O      13.13483     15.16287     11.24771         0.344618     -0.275147     -0.430450
O       1.90600      7.58681      2.67758        -0.480945      0.252305     -0.559086
O       1.98078      7.62318     15.44294        -0.678714     -0.794763     -0.471209
O      13.27754      7.63901      2.64581        -0.037413      0.015914     -0.143671
O      13.51765      7.56182     15.21967        -0.118748      0.622832      0.254760
O       1.92571      7.59858      6.79194        -0.252990     -0.061693      0.389249
O      13.25758      7.61513      6.97344         0.039800     -0.196545     -0.556999
O       1.79747      7.56736     11.11861         0.626875      0.733045     -0.422212
O      13.26897      7.58520     11.04596         0.098103      0.129811     -0.171878
O       1.79062     11.52507      2.67895         0.244875     -2.196806     -0.428310
O       2.08306     11.39732     15.49339        -0.590566      0.333048     -0.331465
O      13.26847     11.40198      2.59848         0.005974     -0.256892     -0.347922
O      13.24934     11.38814     15.54929         0.053444     -0.093642     -0.563090
O       1.81470     11.38789      6.84630        -0.121775      0.872512     -0.009731
O      13.26997     11.42260      6.89569        -0.410266      0.011536      0.086697
O       1.79050     11.34793     11.04974         0.545817     -0.059271     -0.077456
O      13.28712     11.37530     11.10631        -0.343221      0.168399     -0.202777
O       5.72699      3.79135      2.64309        -0.804799     -0.816787     -0.195938
O       5.52287      3.72660     15.40474         0.646336      0.514029     -0.129094
O       5.72083      0.02723      2.62330         0.245753     -1.319942      0.334688
O       5.85078     15.13409     15.33370        -0.401007      0.800915      0.134102
O       5.66096      3.74584      6.94808         0.132850      0.858448     -0.529535
O       5.54901     15.14598      6.94291         0.690412      0.313071     -0.741301
O       5.76020      3.78046     11.15977        -0.437537     -0.173580     -0.434282
O       5.54958      0.00804     11.05229         0.088348     -0.659219     -0.116164
O       5.53079      7.54652      2.60082         0.632682      0.690994     -0.018476
O       5.66064      7.57203     15.46693        -0.018566     -0.754393     -0.583065
O       5.66601      7.58411      6.89458        -0.039117     -0.224200     -0.317248
O       5.70055      7.61705     11.18734        -0.582256     -1.274605     -0.857924
O       5.61533     11.31350      2.73533         0.203920      1.059542     -0.646755
O       5.66754     11.36692     15.38928         0.023694      0.274836     -0.085358
O       5.66939     11.34010      6.88189        -0.055357      1.075876     -0.496539
O       5.80612     11.38017     11.11012        -0.161909     -0.500583     -0.306995
O       9.51094      3.75340      2.66143         0.269349      1.082566     -0.210376
O       9.59873      3.82442     15.35526         0.228426     -0.997842      0.129581
O       9.39025      0.03878      2.59570         0.544634     -0.903938     -0.268344
O       9.53194     15.17029     15.36880        -0.593257      0.121215     -0.413894
O       9.40812      3.82583      6.78897         0.137322     -0.539802     -0.065211
O       9.47256      0.01404      7.01582         0.055228     -0.532651     -1.314726
O       9.37996      3.76220     11.05339         0.247876      0.535184      0.148367
O       9.55958     15.16474     11.13199         0.052778      0.852081      0.005772
O       9.43786      7.58573      2.48724         0.291868      0.630519     -0.003875
O       9.52968      7.54951     15.34755        -0.221508     -0.338272      0.169758
O       9.51264      7.62391      6.86761        -0.714992      0.196163     -0.194651
O       9.46011      7.53648     11.11473         0.430410      0.294028     -0.460685
O       9.42618     11.37782      2.55371         0.139476     -0.487492     -0.237456
O       9.44780     11.35407     15.30753         0.379505     -0.668915     -0.067140
O       9.46136     11.41702      6.82055         0.023488      0.390449     -0.475735
O       9.32472     11.34241     11.22499         0.433843      0.627013     -0.337431
