  # total energy = -7879.12358459 
CRSYTAL
PRIMVEC
    15.6000000000000000    0.0000000000000000    0.0000000000000000
     0.0000000000000000   15.6000000000000000    0.0000000000000000
     0.0000000000000000    0.0000000000000000    17.640000000000000
PRESSURE
-5.23132 -4.87756 -4.35586 0.10345 -0.421425 0.032514
PRIMCOORD
320 1
Pb       3.93528      3.90238      4.29567         0.027833      0.078810     -0.147774
Pb       3.84596      3.72953     17.57649        -0.085097      0.475891      0.205418
Pb       3.96579      0.05418      4.42658        -0.188601     -0.261971     -0.258195
Pb       3.98653     15.58976     17.53562        -0.689463     -0.062164      0.099042
Pb      15.56863      3.84272      4.31173        -0.214529      0.543016     -0.033885
Pb      15.55326      3.75860     17.54068        -0.106453      0.397586      0.012387
Pb       0.00895      0.03347      4.33917        -0.112749     -0.750744      0.046004
Pb       0.11353     15.54310      0.01762         0.099500     -0.099502     -0.703233
Pb       3.89933      3.83640      8.76272         0.387971     -0.027488     -0.414132
Pb       3.86383      0.00921      8.77547         0.212602     -0.010832     -0.015202
Pb       0.05300      3.80406      8.75734        -0.491131      0.446361      0.002142
Pb       0.04576      0.05880      8.90050        -0.331643     -0.481724     -0.624581
Pb       3.75721      4.04128     13.12752         0.300266     -0.332246     -0.312369
Pb       3.92357      0.07859     13.20722        -0.266059     -0.106034     -0.153669
Pb      15.57048      3.83534     13.25888        -0.343918      0.482227     -0.695166
Pb      15.57842     15.58697     13.19618         0.024864     -0.017889     -0.153112
Pb       3.85872      7.80846      4.20416        -0.149633     -0.690526      0.079774
Pb       3.81240      7.80444     17.59034        -0.235661     -0.440125     -0.731451
Pb      15.52515      7.66573      4.42295         0.117795     -0.221303     -0.275834
Pb      15.46833      7.77598     17.63767         0.401490     -0.045539     -0.499456
Pb       3.81133      7.76381      8.77420        -0.059207     -0.446960     -0.365513
Pb       0.05929      7.83262      8.65217         0.078238     -0.268162      0.031821
Pb       3.87127      7.89918     13.18565        -0.305176     -0.093524      0.365587
Pb      15.46831      7.81091     13.18671        -0.069185     -0.094503     -0.068258
Pb       3.90763     11.59330      4.31715        -0.406661      0.815932     -0.204117
Pb       3.88116     11.65489     17.54431        -0.050207     -0.339064      0.125167
Pb       0.04197     11.63809      4.43882        -0.436140      0.350575     -0.545105
Pb       0.01787     11.56383      0.08075        -0.297184      0.278638     -0.414811
Pb       3.89874     11.72482      8.70244         0.046821      0.306989      0.472638
Pb       0.03702     11.52713      8.78050        -0.472821      0.396005     -0.536589
Pb       3.94838     11.53189     13.22394        -0.589382      0.599869     -0.188108
Pb       0.10037     11.62804     13.26159         0.299746     -0.096182     -0.511460
Pb       7.79040      3.96855      4.31037        -0.026544      0.025204     -0.515549
Pb       7.86195      3.82827     17.57082        -0.235689     -0.183699     -0.360289
Pb       7.95126      0.00358      4.38271        -0.362005     -0.334654     -0.566255
Pb       7.82518     15.44695     17.61390         0.299441      0.312213     -0.490185
Pb       7.98198      3.89929      8.71842        -0.754518     -0.228018      0.202690
Pb       7.73742     15.58473      8.70067         0.157231      0.109578      0.052870
Pb       7.61145      3.80784     13.14617         0.504767      0.334946     -0.690839
Pb       7.75020     15.53906     13.15765        -0.269721     -0.282131     -0.089012
Pb       7.67314      7.79573      4.34459         0.512920     -0.309161     -0.504234
Pb       7.79278      7.75399     17.51237         0.449281      0.363098     -0.697830
Pb       7.86795      7.82401      8.77071        -0.168672     -0.264801      0.206601
Pb       7.86679      7.67629     13.21066         0.417235     -0.231990      0.133937
Pb       7.70688     11.62680      4.32941         0.486221      0.506898     -0.530694
Pb       7.77902     11.70104     17.57637         0.284449     -0.353401     -0.707031
Pb       7.76277     11.61614      8.73832        -0.058156      0.588683      0.299660
Pb       7.75759     11.53909     13.21854         0.386597      0.631842      0.095226
Pb      11.64310      3.88482      4.30720         0.375768     -0.154353     -0.005056
Pb      11.61242      3.90899     17.53201         0.516198     -0.055621     -0.550190
Pb      11.79018      0.05505      4.36417        -0.111100      0.034837     -0.804390
Pb      11.83315      0.04984     17.53878        -0.532799     -0.319580      0.223018
Pb      11.72386      3.89469      8.78288        -0.032355     -0.003292     -0.344821
Pb      11.56100     15.56426      8.82106        -0.056827      0.391299     -0.479715
Pb      11.61944      3.83698     13.21777        -0.142085      0.778931     -0.386130
Pb      11.72872      0.06679     13.24227        -0.118742     -0.834113     -0.388422
Pb      11.64090      7.85815      4.40191        -0.089601     -0.357127     -0.529576
Pb      11.82888      7.87424     17.63800        -0.665676      0.002873     -0.632234
Pb      11.80650      7.78162      8.78988        -0.258980     -0.068577     -0.126680
Pb      11.66527      7.86865     13.20843         0.024156      0.039761     -0.455914
Pb      11.71481     11.72189      4.55972         0.224628      0.166368     -0.974979
Pb      11.58084     11.76473      0.12525         0.414439      0.498657     -0.789676
Pb      11.56250     11.75796      8.85290         0.340633     -0.250050     -0.436558
Pb      11.79594     11.68017     13.32322        -0.584882      0.066031     -0.753829
Ti       1.93732      1.89872      2.45063         0.560644      0.357068     -1.891482
Ti       1.90671      1.89812     15.54087        -0.217391     -0.114963     -0.108753
Ti       1.85227     13.65688      2.22596         0.170757     -0.860439      1.706026
Ti       1.95197     13.53987     15.61325        -0.365164      0.245313      0.912803
Ti      13.70699      1.92698      2.26786        -1.864891     -0.045948     -0.057068
Ti      13.60894      1.90525     15.56667        -0.195262      1.105847      1.623166
Ti      13.59363     13.57889      2.33611        -0.400822     -0.122110     -0.602879
Ti      13.69401     13.74857     15.53454        -0.783442     -1.715775      0.902386
Ti       1.83456      1.90163      6.77817         0.894421     -0.502332     -0.964881
Ti       1.86484     13.68349      6.77766        -0.782822      0.181325     -0.389493
Ti      13.53263      1.94063      6.73190        -0.252163      0.066261     -1.702400
Ti      13.57736     13.73734      6.85596         0.779584     -1.314167     -0.572713
Ti       1.87559      1.97253     11.18551         0.182995     -0.441426      0.478545
Ti       1.85603     13.65535     11.22423         1.127999     -0.327430      0.581702
Ti      13.60815      1.96413     11.25070         0.248612      0.892729     -0.465547
Ti      13.53010     13.68337     11.20045        -0.195194      0.012488      2.265206
Ti       2.00903      5.76716      2.27199        -0.631096      0.336865     -0.342411
Ti       1.90002      5.78060     15.59020         0.253930      0.773929     -0.450198
Ti      13.60723      5.79731      2.33463         0.193950     -0.198826      0.031892
Ti      13.64237      5.88544     15.66278        -0.346226     -0.073616     -0.371080
Ti       1.92047      5.74052      6.72779        -0.287966      1.125587     -1.905158
Ti      13.64842      5.77878      6.82235        -0.250112      0.111586      0.547779
Ti       1.91553      5.84745     11.17644        -1.323971      0.244891     -0.720947
Ti      13.61762      5.92898     11.10841         0.015223     -0.470594      0.947795
Ti       1.90087      9.69067      2.40433        -1.165679      0.043863     -1.235836
Ti       1.81636      9.72046     15.65966         0.450510     -0.639302     -1.733049
Ti      13.58464      9.69204      2.45324         0.116050      0.995379     -0.280984
Ti      13.54550      9.92307     15.71250         0.493609     -0.562089      0.043822
Ti       2.02509      9.76930      6.63419        -1.291574     -0.629009      0.516823
Ti      13.56750      9.67821      6.86025         0.410096      1.484387     -1.021439
Ti       1.91097      9.68174     11.20421        -0.325496      0.974446      2.379113
Ti      13.66174      9.86073     11.10379        -0.810796     -1.551581      0.214190
Ti       5.83481      1.85297      2.39515         0.105195      1.100871     -1.125533
Ti       5.79876      1.97377     15.62387         0.232203     -0.766226     -0.838667
Ti       5.72319     13.59191      2.30978         0.545516      0.366378      1.097303
Ti       5.83166     13.59194     15.70044         0.184447      0.077538     -2.302159
Ti       5.77728      1.98972      6.74731         0.308177      0.023746     -0.197355
Ti       5.77018     13.64699      6.79848        -0.061420      0.201352     -0.042244
Ti       5.79293      1.96083     11.14314        -0.093504      0.152806     -0.019827
Ti       5.66389     13.62955     11.29307         0.556026     -0.214879     -1.250243
Ti       5.86441      5.80930      2.20357        -0.113462     -1.036419     -0.506176
Ti       5.79932      5.83538     15.62719        -0.449863     -0.039833      0.312107
Ti       5.85202      5.89173      6.70913        -0.237637     -1.029781     -0.291859
Ti       5.80469      5.98971     11.05460         0.931917     -2.519954     -1.313387
Ti       5.79857      9.73661      2.29201         0.437622     -0.011735     -0.889476
Ti       5.77607      9.69629     15.55114         0.614991      0.092534      0.321130
Ti       5.77902      9.70295      6.77513         0.758999      0.250612     -0.554091
Ti       5.87418      9.74391     11.20578        -0.365206      0.708586      0.067082
Ti       9.71160      1.95269      2.38087         0.586713     -0.583627     -0.383693
Ti       9.68244      1.91479     15.55827         0.150785      0.333917      0.856770
Ti       9.65135     13.61354      2.34716         0.385129     -0.287499      1.029811
Ti       9.77743     13.70813     15.55885         0.364291     -1.413077     -0.420357
Ti       9.68999      1.96184      6.62262         0.427448      0.054177      1.451378
Ti       9.69475     13.65291      6.70545        -0.080615      0.368116     -0.794529
Ti       9.75733      1.82381     11.16404        -0.781143      0.898049     -0.724285
Ti       9.59423     13.64727     11.14651         1.128947     -0.812600      1.537417
Ti       9.79731      5.80573      2.23293        -0.027473      0.926392      0.617864
Ti       9.72933      5.83084     15.54560         0.839936      0.636248     -0.735007
Ti       9.69951      5.82627      6.75819         0.603660     -0.100169     -1.492655
Ti       9.72206      5.82747     11.13192         0.019927     -0.570591      0.406760
Ti       9.71351      9.66327      2.29320         0.147469      1.055150     -0.587623
Ti       9.73815      9.76554     15.60801        -0.476749     -0.479228     -0.637199
Ti       9.66712      9.71156      6.81345         0.746849      0.248562     -0.034557
Ti       9.68764      9.77957     11.23607         1.569468      0.104233     -0.239191
O       1.95210      2.02172      0.66041        -0.124029     -0.620413      0.600617
O       1.81963      1.90954     13.76110         0.322787      0.370997      0.909548
O       1.90860     13.58247      0.49464        -0.316390      0.149439     -0.205883
O       1.92593     13.38906     13.88005        -0.054054      0.218330     -0.187370
O      13.61006      1.97057      0.46504         0.058691     -0.331304      1.202212
O      13.59293      1.90894     13.84969         0.080528      0.182009     -0.981429
O      13.48465     13.47606      0.53759         0.202801      0.507010      1.103792
O      13.65094     13.76832     13.79021        -0.052035     -0.415462     -0.635781
O       1.91329      1.64781      5.00956        -0.127198      0.606566     -0.306599
O       1.70196     13.82776      5.02760         0.290503     -0.250198      0.574916
O      13.45118      2.00086      4.88153         0.617781     -0.640577      1.486906
O      13.54265     13.51124      5.09130         0.003923      0.663650      0.219272
O       1.78100      2.05275      9.41267         0.029278     -0.201378     -0.899881
O       1.94751     13.63879      9.50402        -0.136525      0.151504     -1.037389
O      13.56624      2.00450      9.45918         0.155499     -0.233269      0.383642
O      13.44267     13.83303      9.51758         0.137443     -0.083589     -1.510106
O       2.06797      5.80874      0.48843        -0.298391     -0.071770      1.108026
O       1.86778      5.75431     13.77034         0.302719     -0.216541      0.427820
O      13.73159      5.68390      0.58896        -0.587086      0.501813     -0.023900
O      13.75803      5.97273     13.93848         0.109249     -0.196950     -0.533395
O       1.87992      5.80582      4.88378        -0.001172      0.032678      1.467591
O      13.69133      5.90657      5.10902        -0.059152      0.224211     -1.541715
O       1.80830      5.96991      9.37493         0.549766     -0.263108      0.820456
O      13.59619      5.78174      9.37444        -0.050516      0.170862     -0.885560
O       1.83022      9.61540      0.59637         0.083126      0.449042      0.415615
O       1.81389      9.80122     13.81425        -0.101692      0.311871      0.738270
O      13.66520      9.74284      0.67530        -0.240135      0.270857     -0.177874
O      13.54977      9.81333     13.97944        -0.008337      0.262858     -0.995997
O       2.01489      9.83158      4.86384         0.077505     -0.356161      0.511158
O      13.56597      9.69277      5.04944        -0.007564     -0.064232      0.344129
O       1.79806      9.62202      9.51919         0.507645     -0.049581     -2.004236
O      13.72906      9.77781      9.34342        -0.335368     -0.238815     -0.765135
O       5.67884      2.01796      0.62169         0.476020     -0.594755     -0.312085
O       5.77474      1.85823     13.85378        -0.063875      0.191346     -0.124694
O       5.79327     13.43687      0.57273         0.253011      0.379316     -0.821311
O       5.83121     13.70056     13.89812        -0.178885     -0.292304      0.615977
O       5.76978      1.90920      4.96039        -0.079701      0.130750      0.222014
O       5.71506     13.59717      5.07306         0.272203      0.287157     -0.104337
O       5.69316      1.85280      9.39529         0.096541      0.145772     -0.124799
O       5.75695     13.63171      9.49152        -0.280020     -0.006808      0.191366
O       5.72474      5.69347      0.43547         0.480795      0.545797      0.671827
O       5.75805      5.86077     13.88754         0.033058     -0.149945     -0.540847
O       5.81769      5.86365      4.88395         0.194280      0.005642      0.847284
O       5.90305      6.02120      9.24120        -0.364151     -0.243907      1.092491
O       5.84893      9.82216      0.53050        -0.070634     -0.144102      0.617393
O       5.90646      9.69688     13.78892        -0.296021     -0.003314     -0.736841
O       5.63109      9.73991      5.00191         0.464997     -0.228533      0.057011
O       5.79238      9.87568      9.48944         0.170619     -0.459270     -1.105963
O       9.65049      1.90406      0.62933        -0.107111      0.261726     -0.694264
O       9.71674      1.94511     13.85512        -0.019030     -0.295711     -1.461929
O       9.63961     13.56818      0.59320        -0.241898      0.178384     -1.167549
O       9.67011     13.68287     13.82644         0.241961      0.228751     -0.357459
O       9.71410      2.05394      4.89158        -0.111837     -0.027041     -1.198169
O       9.57171     13.69526      4.89404         0.248908     -0.462598      1.348825
O       9.75904      1.74416      9.37586         0.142970      0.668571      0.622832
O       9.59640     13.78314      9.42476         0.553358     -0.212475     -1.629099
O       9.83241      5.85057      0.47671        -0.140282     -0.097230     -0.200352
O       9.73221      5.78637     13.77553        -0.270374      0.208626     -0.203923
O       9.72139      5.82379      4.91982        -0.213208      0.046358      1.649519
O       9.58231      5.71195      9.32854         0.321887      0.581847      0.435426
O       9.74134      9.63673      0.49474        -0.249677      0.218866      0.418080
O       9.70188      9.76605     13.82182         0.216048     -0.046566     -0.685034
O       9.57977      9.85415      5.08789         0.239481     -0.445755     -0.309850
O       9.82461      9.69021      9.47225        -0.457308     -0.036301     -0.866786
O       3.87426      2.00888      2.76164        -0.142726     -0.912703      0.613902
O       3.78297      1.83039     16.01453         0.426630      0.356942     -0.142812
O       3.79772     13.62093      2.71506         0.275296      0.295175      0.030827
O       3.85266     13.45568     16.12715         0.261449      0.822783     -0.527931
O      15.53176      2.02743      2.68868         0.395227     -0.544579      0.299251
O      15.54199      1.80708     16.13636         0.554030      0.207044     -0.797931
O      15.47533     13.62117      2.66472         0.375278      0.107859      0.017131
O      15.51025     13.67676     15.96345         1.329189     -0.092085      0.352285
O       3.85914      1.91429      7.11863        -0.432172      0.230595      0.468340
O       3.80101     13.66452      7.10764         0.365294     -0.061861      0.427818
O      15.56157      1.93129      7.05677        -0.365328      0.210164      0.543962
O      15.51823     13.71760      7.27418         0.420615     -0.291412      0.219694
O       3.78896      2.01754     11.49323         0.614517      0.251606      0.488414
O       3.80530     13.61526     11.66622         0.341585      0.005888      0.238932
O      15.52174      1.95476     11.69368         0.021647     -0.167852     -0.251061
O       0.04840     13.83443     11.61297        -1.332703     -0.842161     -0.097070
O       3.83627      5.69599      2.72435         0.973640      0.565634     -0.131839
O       3.81496      5.82407     16.01190         0.295421      0.051830     -0.191315
O      15.49825      5.92723      2.77865         0.527359     -0.526389      0.065870
O       0.07712      5.82893     16.11935        -0.893545     -0.044321     -0.099522
O       3.79313      5.91788      7.14326         0.696296     -0.217708      0.173729
O      15.54646      5.77173      7.14573         0.868925      0.207515      0.262750
O       3.88038      5.72278     11.38368        -0.223977      0.418658      0.436374
O      15.49964      5.91041     11.47706         0.971794      0.341291      0.506902
O       3.75958      9.77974      2.74283         1.693541      0.106790     -0.020506
O       3.85186      9.74853     15.76489        -0.149930     -0.166997      0.817873
O      15.59005      9.73253      2.82979        -0.451974     -0.106162      0.241250
O      15.53027      9.68702     16.02310        -0.124910      0.771125      0.557255
O       3.98963      9.67698      7.29652        -1.473387      0.073838     -0.328536
O       0.07380      9.79419      7.13311         0.049106     -0.151450     -0.062938
O       3.90541      9.78557     11.58590        -0.159273     -0.852577      0.329147
O      15.52164      9.70260     11.53563         0.651072      0.139948      0.467433
O       7.79085      2.01061      2.75734        -0.235888      0.017684      0.280102
O       7.69964      1.92608     15.93520         0.527259     -0.069573      0.581967
O       7.61767     13.63154      2.80885         0.314307     -0.066430     -0.027017
O       7.81644     13.65553     15.91353        -0.995436     -0.252260      1.112880
O       7.79539      1.96350      7.03710        -0.843157      0.109699      0.241474
O       7.84387     13.64707      7.26154        -1.027964      0.087319     -0.486432
O       7.72586      1.86216     11.50584         0.285342     -0.099798      0.388753
O       7.81945     13.67145     11.59934        -1.671209      0.253873      0.416463
O       7.87480      5.83401      2.54579        -1.375473      0.336735      0.392309
O       7.83114      5.91930     15.91308        -1.397964     -0.517660      0.577167
O       7.76800      5.63386      7.06088        -0.209668      0.499044     -0.057331
O       7.78379      5.88798     11.59363        -0.299888     -0.166868     -0.050595
O       7.71604      9.54012      2.77648        -0.406644      1.006277     -0.073465
O       7.77718      9.71182     15.85493        -0.467051     -0.254146      0.988822
O       7.78438      9.72797      7.20440        -0.798541      0.342823      0.238153
O       7.77041      9.90005     11.49081        -0.408984     -1.093153      0.444518
O      11.66949      1.91804      2.72335        -0.165032     -0.071000      0.031540
O      11.64885      2.08024     16.01180         0.055166     -1.213864     -0.158935
O      11.51327     13.60241      2.67062         0.866008     -0.021120      0.527255
O      11.71681     13.57213     15.93946        -0.890772      0.551372      0.308854
O      11.66617      1.95223      7.01271        -0.080544     -0.112189      0.636423
O      11.66946     13.60905      7.13338        -1.023913      0.479769      0.472031
O      11.65413      2.01825     11.66950         0.005221     -0.681455     -0.120218
O      11.62213     13.68607     11.69373         0.854233     -0.159122     -0.287310
O      11.69778      5.86691      2.81384         0.236613      0.142280     -0.260266
O      11.69591      5.81835     15.80657         0.271183     -0.135755      0.987412
O      11.70116      5.88493      7.19987        -0.903028      0.084031      0.186530
O      11.73078      5.86691     11.48109        -1.121300     -0.081377      0.208638
O      11.61167      9.70156      2.80238         0.385469      0.665110      0.176955
O      11.67036      9.69740     16.08230        -0.029760      0.401589      0.302062
O      11.65469      9.61770      7.11263        -0.426744      0.026646      0.427439
O      11.63136      9.80508     11.61180         0.444022      0.213262      0.372507
O       1.95527      3.80660      2.79795        -0.664474      0.841926      0.232491
O       1.88520      3.81960     15.92435        -0.005683     -0.387181     -0.072331
O       1.75132     15.55472      2.70053         0.382759      0.432896     -0.029313
O       1.97460     15.48132     16.00956        -0.280863      0.448659      0.008841
O      13.56524      3.83419      2.80358         0.352979      0.676874     -0.356665
O      13.61341      3.88643     15.99762         0.635988     -0.225239     -0.054318
O      13.54905     15.52852      2.72889         0.155748      0.828703     -0.111044
O      13.55170     15.59263     15.92722        -0.168229      0.759963      0.415704
O       1.88962      3.87392      7.02109         0.209566     -0.196618      0.571013
O       1.88601      0.02738      7.24488        -0.022119     -0.377901      0.523147
O      13.53704      3.86579      7.03216         0.312744     -0.217806      0.812634
O      13.59579      0.03747      7.23309        -0.092404     -0.044777     -0.176647
O       1.80007      3.89825     11.52231         0.201155      1.041266      0.477352
O       1.91790      0.11305     11.58323         0.106626     -0.920980      0.005376
O      13.66600      3.90542     11.61477        -0.244520     -0.034998      0.297391
O      13.61905      0.03106     11.77039        -0.260015      0.069279     -0.617803
O       2.05102      7.73455      2.59984        -0.348878     -0.051273      0.620257
O       1.84630      7.83068     15.81249         0.529423     -0.741367      0.845759
O      13.54707      7.85359      2.62999         0.188451     -1.268653      0.738149
O      13.62170      7.85941     16.02748         0.170935     -0.929016      0.841639
O       1.91067      7.83274      6.97972         0.124425      0.280214      0.463693
O      13.69337      7.79457      7.24682        -0.180318     -0.057042      0.105812
O       1.96141      7.79018     11.78414         0.113462     -0.521200     -0.752373
O      13.48574      7.93663     11.60359         0.588512     -1.118061     -0.117247
O       1.78352     11.76626      2.79977         0.480323     -0.474757     -0.295612
O       1.90625     11.61354     16.15906        -0.554117      0.431994     -0.197619
O      13.49912     11.73549      2.86895         0.216485     -0.819104      0.164722
O      13.57401     11.78976     15.99317         0.317069     -0.819057      0.130926
O       1.92012     11.68396      7.10514         0.424984     -0.067557      0.076837
O      13.55747     11.64663      7.25322         0.097657      0.093818      0.322353
O       1.95629     11.63697     11.57258        -0.691552      0.183102      0.211364
O      13.65955     11.67519     11.42165        -0.086958      1.839972      0.665292
O       5.83549      3.87376      2.56849         0.174210      0.994557      1.098934
O       5.75094      3.82956     15.87139         0.157467      0.573841      0.457174
O       5.87168      0.00033      2.65913        -0.623831     -0.541633      0.249934
O       5.74521     15.53187     15.99072         0.119661      0.016844      0.711949
O       5.71256      3.88747      7.17778         0.021199      0.173350     -0.143153
O       5.71363      0.01354      7.20520         0.575889     -0.469158     -0.160301
O       5.93092      3.88565     11.42034        -0.483987     -0.031917      0.491371
O       5.62849     15.54391     11.65819         0.841582      0.614284     -0.088845
O       5.77037      7.79236      2.49807        -0.523306     -0.556513      0.676186
O       5.71907      7.78540     15.95643         0.375381     -0.355866      0.528140
O       5.94280      7.73958      7.06055        -0.125619      0.634738      0.126114
O       5.84008      7.73338     11.44996        -0.263876      1.716810      0.687785
O       5.78370     11.68196      2.80617        -0.044462     -0.803474     -0.103997
O       5.74646     11.61168     15.96421         0.695262      0.602232      0.257141
O       5.77104     11.67973      7.13117         0.296284     -0.013911      0.334440
O       5.81448     11.67942     11.58560        -0.096141      0.296042      0.646223
O       9.80308      3.96385      2.62413        -0.273233     -0.741971      0.297876
O       9.72583      3.85825     15.80558        -0.502172     -0.055465      1.257919
O       9.64629     15.56600      2.71312        -0.256587      0.626043      0.346464
O       9.69062     15.56072     15.96464         0.237426      0.965331      0.499857
O       9.75958      3.86222      7.18309         0.219106      0.391570     -0.026261
O       9.69834      0.10070      6.98493         0.137515     -1.636411      0.358742
O       9.73957      3.89191     11.55081        -0.239778      0.053499      0.030117
O       9.73250     15.58303     11.43106         0.228945      0.484113      1.025228
O       9.82362      7.86739      2.66568        -0.502032     -1.582369      0.623979
O       9.76848      7.76837     15.79974        -0.225152     -0.059987      0.844359
O       9.54898      7.74111      7.09666         0.416864     -0.010338      0.198001
O       9.70207      7.79184     11.60620        -0.118257     -0.313152      0.026914
O       9.58362     11.66841      2.63831        -0.342629     -0.598408      0.461692
O       9.68320     11.64150     15.78059         0.200870      0.773502      1.226883
O       9.73885     11.74771      7.22854         0.027576     -0.576556     -0.094409
O       9.69087     11.68508     11.44456         0.029316      0.615699      0.403808
