  # total energy = -7879.83814869 
CRSYTAL
PRIMVEC
    15.3600000000000000    0.0000000000000000    0.0000000000000000
     0.0000000000000000   15.3600000000000000    0.0000000000000000
     0.0000000000000000    0.0000000000000000    17.440000000000000
PRESSURE
1.13063 1.16755 5.35243 -0.17663 -0.170548 -0.028791
PRIMCOORD
320 1
Pb       3.80100      3.85432      4.42055         0.044425     -0.524672     -0.313063
Pb       3.98059      3.76659     17.35936        -0.938745      0.061857     -0.454950
Pb       3.79111     15.31439      4.38799         0.301298     -0.189637     -0.830716
Pb       3.90978      0.03263     17.39723        -1.277324     -0.478096     -0.537517
Pb      15.34361      3.82149      4.44832         0.062765     -0.314739     -0.708162
Pb       0.15017      3.86208      0.06872        -0.250704     -0.476764     -0.503941
Pb       0.05833     15.28928      4.33566        -0.195511      0.158570     -0.585766
Pb      15.08657     15.28589      0.02700         1.017557      0.135733     -0.821996
Pb       3.73921      3.98048      8.55120         0.154527     -1.423390      0.904721
Pb       3.82772     15.34506      8.84995         0.133102      0.084283     -0.922510
Pb      15.03167      3.94277      8.62949         0.875278     -0.196277     -0.334073
Pb      15.26590      0.19352      8.71254        -0.307443     -0.803658     -0.474282
Pb       3.88005      3.75438     12.93204        -0.316116     -0.207798     -0.074206
Pb       3.73029     15.21299     12.92654         0.211511      0.721813      0.297161
Pb      15.35276      3.66455     13.13736        -0.091245      0.199809     -0.661397
Pb       0.03225      0.02131     12.91006        -0.462919     -0.500425      0.712197
Pb       3.94686      7.67281      4.25539        -0.997337      0.490894      0.420454
Pb       3.66922      7.63569      0.04646         0.719952     -0.465351     -1.038392
Pb       0.22683      7.70429      4.30475        -0.753982     -0.087597      0.189707
Pb      15.29701      7.79085     17.33874        -0.338240     -0.428149     -0.232405
Pb       3.97401      7.62124      8.72940        -0.432844      0.710449     -0.222381
Pb      15.34011      7.63457      8.68484        -0.131957     -0.084883      0.046644
Pb       3.80693      7.62452     13.06848         0.145290      0.147254     -0.300833
Pb       0.08605      7.69375     13.12969        -0.496028     -0.496682     -0.619502
Pb       3.61395     11.48702      4.31332         1.113208      0.036727     -0.269715
Pb       4.03799     11.29553     17.31293        -1.639362      1.140067     -0.145398
Pb       0.17865     11.67439      4.16393        -1.221287     -0.430819      0.363050
Pb      15.24444     11.47111     17.30036         0.368679      0.150601     -0.045615
Pb       3.77973     11.60952      8.72439         0.256642     -0.504243     -0.468397
Pb      15.34051     11.33735      8.67752        -0.180845      0.724011     -0.140740
Pb       3.97721     11.48956     12.96327        -0.544821     -0.068106      0.172021
Pb       0.15195     11.47058     13.16149        -0.650310      0.599514     -0.457783
Pb       7.70291      3.71110      4.42156         0.123784      0.007876     -0.715079
Pb       7.68402      3.90122     17.30057        -0.189938     -0.244973     -0.209718
Pb       7.69568      0.03302      4.35629        -0.245173     -0.304332     -0.390830
Pb       7.37680     15.32184     17.32372         1.463273      0.273887      0.176174
Pb       7.65456      3.81755      8.69469        -0.047151     -0.125080      0.012555
Pb       7.67748     15.24917      8.57664        -0.021131      0.689702      0.654774
Pb       7.83759      4.00326     13.28662        -0.189862     -0.511569     -1.088462
Pb       7.68186      0.15971     13.02588        -0.101300     -0.032605     -0.296899
Pb       7.53562      7.48854      4.27032         1.098711      0.592703     -0.809772
Pb       7.61685      7.64647     17.43945        -0.079204      0.098354     -0.527918
Pb       7.59139      7.88434      8.62382         0.229992     -0.815615      0.422769
Pb       7.61099      7.60515     12.96443        -0.151194      0.308602      0.284593
Pb       7.69535     11.37890      4.38083        -0.057266      0.334555     -0.548261
Pb       7.52358     11.65645     17.31849         1.076788     -0.545733      0.059974
Pb       7.70304     11.48372      8.68732        -0.142502      0.055244      0.100505
Pb       7.88774     11.65337     13.06774        -0.850364     -0.855633     -0.567771
Pb      11.58395      3.75431      4.37129        -0.623476      0.053706     -0.520753
Pb      11.56348      3.81485      0.05564         0.275705      0.009097     -0.125990
Pb      11.59220     15.34047      4.26298        -0.390177     -0.002054      0.176056
Pb      11.38567     15.27454     17.23187         0.070890      0.135387      0.517405
Pb      11.57102      4.07493      8.68918        -0.474342     -0.639965     -0.285471
Pb      11.46073     15.27378      8.64247         0.353803      0.566205     -0.405001
Pb      11.54902      3.68450     13.31828         0.014419      0.329158     -1.660050
Pb      11.42464     15.33213     13.04943         0.421950      0.412108     -0.560689
Pb      11.58599      7.68901      4.20446        -0.847339     -0.103450     -0.126357
Pb      11.41402      7.57851      0.01349         0.321729      0.207517      0.551479
Pb      11.56414      7.69684      8.64526        -0.163359     -0.610689      0.449710
Pb      11.38284      7.70884     13.02060         0.658067     -0.478071     -0.244613
Pb      11.57432     11.37013      4.40608        -0.213939      0.257103     -0.798926
Pb      11.34987     11.49419     17.33928         0.215766     -0.358738      0.505920
Pb      11.50388     11.51857      8.86917         0.083104      0.050045     -1.045894
Pb      11.46263     11.43441     12.96051         0.360191      0.214636     -0.272224
Ti       1.88250      1.91864      2.38652        -0.014067     -0.699010     -0.972376
Ti       1.76222      1.79822     15.45777         1.193938      0.425414      0.569379
Ti       1.92304     13.35914      2.08750         0.901301      1.237095      0.167934
Ti       1.86875     13.34952     15.41880         0.555781      0.830103      1.352189
Ti      13.39189      1.85405      2.22218         0.090842      0.761511      1.571870
Ti      13.36949      1.86489     15.40686         0.917302      0.228344      1.633861
Ti      13.33307     13.43197      2.20810         0.600909     -0.228731      1.841632
Ti      13.30552     13.31282     15.33858         1.417188      0.263371      1.222112
Ti       1.88395      1.89261      6.74920        -0.265163      0.086966      1.776756
Ti       1.84745     13.49862      6.78054         0.025935     -0.478302      1.970386
Ti      13.32999      1.90100      6.56517        -0.359982     -0.779775      2.126778
Ti      13.47406     13.36532      6.67685        -0.063522      0.297324      1.681988
Ti       1.83542      1.87064     10.91933         0.865662      0.868346      1.233561
Ti       1.87175     13.37154     10.94381        -0.573200     -0.123320      2.306600
Ti      13.33791      1.91192     10.92205        -0.574689      0.387073      3.656352
Ti      13.40401     13.47796     11.01794         0.256406     -0.145431      2.493682
Ti       1.93380      5.67845      2.31541         0.176903      0.338814      0.499036
Ti       1.89335      5.72132     15.41871         0.510854     -0.968644      1.247489
Ti      13.49731      5.69828      2.34766        -0.920796      0.305467      0.908494
Ti      13.46095      5.71651     15.50139        -0.352748     -0.305406      1.954640
Ti       1.97439      5.79709      6.72013        -1.232109     -0.376593     -0.231722
Ti      13.40581      5.78998      6.40197        -0.302625      0.083399      2.119457
Ti       1.84443      5.67378     11.05727        -0.153150      0.554162      1.549921
Ti      13.35288      5.80537     11.18842         0.140251     -0.578367      1.716154
Ti       1.84630      9.53201      2.09974         0.941708      0.673805      2.393346
Ti       1.88054      9.56557     15.32608         0.802587      0.701556      1.169594
Ti      13.47252      9.63927      2.27671        -1.022599     -0.259117      0.243693
Ti      13.29366      9.52116     15.29775         0.886971      0.658401      2.316784
Ti       1.83703      9.59031      6.64666         1.170963      0.260204      2.451857
Ti      13.39650      9.50633      6.64966         0.368434      0.833904      1.592418
Ti       1.85105      9.55875     11.02813         0.825076     -0.564921      1.829947
Ti      13.47299      9.63708     11.09127        -0.763210     -0.418081      2.411788
Ti       5.74180      1.99508      2.30173        -0.063263     -1.381409      2.607547
Ti       5.69208      1.86960     15.23715        -0.304908      0.927732      2.096420
Ti       5.79419     13.43266      2.34424        -0.571029      0.074415      2.598860
Ti       5.70983     13.38284     15.25011        -1.003556      0.597354      0.568286
Ti       5.73791      1.86645      6.75137        -0.601813      0.042485      2.333507
Ti       5.80063     13.36925      6.75655        -1.134631      0.534737      0.049702
Ti       5.81328      1.92761     10.92000        -0.412075     -0.271111      1.445647
Ti       5.80520     13.45779     11.06856         0.033349     -0.249561      1.127775
Ti       5.70098      5.64466      2.31256         0.965520      0.765338      1.613361
Ti       5.70620      5.77605     15.29738         0.269561      0.149059      2.250411
Ti       5.79219      5.70340      6.57524        -0.083974     -0.150054      1.591941
Ti       5.68853      5.70643     10.97588         0.674174      0.020897      1.488596
Ti       5.72217      9.65000      2.25829        -0.061695      0.064928      3.956533
Ti       5.76708      9.53440     15.30585         0.050058     -1.055563      0.713267
Ti       5.69576      9.61407      6.64413        -1.095503      0.627992      1.255702
Ti       5.71224      9.55730     11.02755         0.379417      0.505039      1.296609
Ti       9.57894      1.78186      2.11243        -0.662118      1.848966      1.452778
Ti       9.54351      1.91302     15.41466        -0.669902     -0.844274      0.292255
Ti       9.54100     13.44399      2.32962        -0.144843     -1.086444      0.503551
Ti       9.58404     13.42257     15.26436        -0.672525      0.077693      2.913456
Ti       9.57343      1.95830      6.71019         0.672694     -0.265817      2.658940
Ti       9.62590     13.42901      6.61920         0.342506     -0.557079      0.869944
Ti       9.54412      1.93475     10.89573         0.437719      0.695082      0.640627
Ti       9.57912     13.53395     10.91436        -0.150057     -0.508793      2.110256
Ti       9.66103      5.56448      2.41518        -0.662832      0.946756      2.022368
Ti       9.67693      5.76750     15.38541        -1.089419     -0.306953      1.001269
Ti       9.48846      5.76666      6.62526         1.285392      0.576885     -0.205967
Ti       9.59315      5.70431     11.04249         0.066569     -0.350884      2.378897
Ti       9.54140      9.55449      2.23880         0.032127     -0.277029      1.385569
Ti       9.58181      9.51807     15.35967        -1.252168      0.648495      1.085270
Ti       9.61980      9.54350      6.67496        -0.085341      0.604712      0.462808
Ti       9.53889      9.54644     11.04979        -0.076497     -0.017014      1.147459
O       1.83904      1.98328      0.61347         0.268275     -0.156632      0.682457
O       1.74203      1.81780     13.70533        -0.099447      0.332289     -0.902441
O       2.05228     13.44174      0.34831        -0.390400     -0.019357      1.135134
O       1.86043     13.35147     13.67925         0.185538      0.057151     -1.187999
O      13.36404      1.75380      0.49562         0.176695      0.048023     -0.798646
O      13.43869      2.01206     13.69812         0.053486     -0.152338     -0.884664
O      13.37722     13.53856      0.47959        -0.192536     -0.376472     -0.411692
O      13.21991     13.21398     13.64519         0.065396      0.363402     -1.088389
O       1.87708      1.87159      5.03002         0.024253     -0.152194     -1.620846
O       1.69049     13.51581      5.06365         0.297517      0.013437     -1.785910
O      13.24627      2.00747      4.84030         0.245264     -0.585301     -0.805346
O      13.46236     13.39571      4.96678         0.296203      0.013048     -1.321020
O       1.85721      1.93661      9.18748        -0.331822     -0.026523      0.233853
O       1.84445     13.38097      9.26032         0.264441      0.010054     -1.256891
O      13.32743      1.90317      9.24064         0.131702      0.269377     -2.300150
O      13.33323     13.47758      9.35250        -0.027221     -0.169063     -2.682544
O       2.11583      5.65258      0.57258        -0.684154      0.403972     -0.017651
O       1.89782      5.65977     13.71130        -0.109714      0.162221     -1.293778
O      13.38675      5.66771      0.61838         0.084404      0.166301     -0.850455
O      13.22295      5.73853     13.84672         0.280171     -0.393542     -2.520721
O       1.95771      5.83288      4.97475        -0.039321     -0.132694     -0.376388
O      13.35763      5.67608      4.67961         0.359511      0.186207     -0.129314
O       1.80475      5.69216      9.34959         0.099939      0.075797     -1.844396
O      13.37280      5.73867      9.46793        -0.011889     -0.055878     -1.742364
O       1.96222      9.68876      0.39714        -0.209376     -0.868653     -0.717762
O       1.89381      9.63683     13.57774        -0.261345     -0.313352     -0.110777
O      13.53006      9.77098      0.53994        -0.347838     -0.693133     -0.056678
O      13.34761      9.65617     13.62308         0.024108     -0.063734     -1.939615
O       1.92981      9.56672      4.94591        -0.446136     -0.067665     -1.363449
O      13.40261      9.55552      4.95461        -0.104141      0.201443     -1.773895
O       1.83575      9.45992      9.32372        -0.135452      0.215811     -1.040371
O      13.54063      9.55666      9.40803        -0.108902     -0.263970     -2.388158
O       5.75747      2.04511      0.61382        -0.224847     -0.314319     -2.247770
O       5.81187      1.88943     13.55395        -0.232731     -0.030156     -1.628393
O       5.75591     13.46309      0.64161         0.200943      0.048305     -2.524172
O       5.64817     13.37506     13.52189         0.256311      0.393814     -0.368535
O       5.77240      1.98849      5.07649        -0.005794     -0.241798     -2.532356
O       5.73233     13.34958      5.03783         0.141933     -0.100788     -0.523445
O       5.89105      1.74368      9.20094        -0.479029      0.563841     -0.491602
O       5.68294     13.40291      9.36306         0.227917      0.173851     -1.838641
O       5.76015      5.58396      0.61949        -0.056420      0.191915     -1.567300
O       5.73450      5.84419     13.60630        -0.239462     -0.274702     -1.739780
O       5.68515      5.59120      4.84590         0.187266      0.562587     -0.358310
O       5.75790      5.79533      9.26492        -0.120060      0.080166     -1.569539
O       5.79582      9.71183      0.59711         0.088386     -0.453703     -3.117244
O       5.70045      9.37069     13.61263         0.093449      0.501926     -1.037955
O       5.58468      9.77635      4.93007         0.309115     -0.207271     -0.730773
O       5.70821      9.58885      9.28272         0.156305     -0.287815     -0.593580
O       9.52672      2.08096      0.39637         0.086317     -0.578274     -0.791697
O       9.47059      1.72305     13.67410         0.285676      0.316299     -0.460525
O       9.48766     13.35511      0.58827         0.106007     -0.079498     -0.414282
O       9.63823     13.57444     13.58218        -0.016665     -0.375410     -2.009420
O       9.58567      1.85454      5.01894        -0.199551     -0.035756     -1.652212
O       9.48093     13.58931      4.90330         0.424776     -0.429179     -0.644555
O       9.47086      1.92309      9.12152         0.431712      0.366721      0.852190
O       9.63170     13.38953      9.20992        -0.017132     -0.211545     -1.039166
O       9.72941      5.62446      0.72482        -0.221940     -0.139665     -2.557115
O       9.62553      5.74525     13.66157         0.058766      0.251308     -0.519174
O       9.49426      5.87324      4.86549        -0.120779     -0.491703      0.366074
O       9.73109      5.75820      9.35752        -0.274829     -0.308683     -1.940057
O       9.54542      9.60650      0.49442         0.009231      0.042267     -0.259136
O       9.52220      9.59805     13.62784         0.342634     -0.330602     -0.292472
O       9.62690      9.51936      4.94691        -0.155540      0.186256     -0.316481
O       9.48288      9.59961      9.33033         0.005243     -0.187038     -1.388769
O       3.83805      1.86119      2.84581        -0.198568      0.554639     -0.089776
O       3.79175      2.02767     15.74853         0.489476     -1.083426      0.044311
O       3.78288     13.35219      2.81473        -0.179161      0.377697     -0.355478
O       3.83650     13.47594     15.80188         0.910405     -0.085480     -0.291068
O      15.29208      2.02655      2.76515         0.621711     -0.757629     -0.024874
O      15.29080      1.84878     15.89369        -0.561000      0.405982      0.093885
O      15.34083     13.47529      2.65516         0.618571     -0.084967     -0.315983
O      15.34267     13.34654     15.76350        -0.844675     -0.127255      0.035738
O       3.73802      1.78963      7.19361         0.950396      0.485348     -0.246841
O       3.75248     13.47015      7.13586         0.681287      0.101549      0.262619
O      15.21898      1.96699      7.02571         0.233928     -0.178078      0.180264
O      15.33130     13.41520      7.27000        -0.478111      0.082116     -0.316680
O       3.77302      1.90959     11.44508        -0.021484     -0.421630     -0.465391
O       3.84990     13.41016     11.43600        -1.189756     -0.095021     -0.276886
O      15.27754      1.84497     11.44183         0.798892      0.578823     -0.489860
O      15.29406     13.42881     11.45583         0.718999      0.133115     -0.182788
O       3.81042      5.73387      2.76988        -0.250048     -0.246968      0.070905
O       3.85507      5.88755     15.80219        -0.480638     -0.716514      0.039860
O      15.34925      5.71838      2.79752         0.465355      0.167568     -0.283117
O      15.31267      5.80104     15.91123         0.966748     -0.281417     -0.070033
O       3.87370      5.75954      7.12779        -0.291589      0.192021     -0.440902
O      15.25414      5.68170      6.90910         0.147817     -0.028587      0.336402
O       3.82071      5.77263     11.43558        -0.472437     -0.304611      0.025458
O      15.29344      5.79275     11.52833         0.513455     -0.303536      0.266485
O       3.71557      9.60841      2.67236         0.344582      0.092783     -0.207052
O       3.80406      9.51477     15.65655         0.452951      0.077727      0.626479
O      15.32416      9.62822      2.65439         1.034782     -0.462276      0.101488
O      15.32415      9.58065     15.75279         0.306827      0.084937     -0.146687
O       3.76290      9.62599      7.08158         0.355452     -0.519223      0.229085
O      15.30685      9.47683      7.11524         0.772050      0.330185     -0.077522
O       3.83423      9.58173     11.47800        -0.477809      0.226367     -0.325315
O      15.28470      9.47511     11.58740         1.308831      0.191718     -0.191265
O       7.61467      1.90899      2.58971         0.410802     -0.088354      0.649735
O       7.58997      1.83255     15.72765         0.089439      0.170303      0.314701
O       7.71209     13.46700      2.84973        -0.653953     -0.290514     -0.216169
O       7.64433     13.45227     15.68859        -0.401480     -0.234976      0.089242
O       7.66032      1.93751      7.22273         0.195329      0.087598     -0.919849
O       7.70130     13.33443      7.14462        -0.024144     -0.104014     -0.335760
O       7.67628      2.01463     11.44033        -0.076759     -0.389531     -0.145817
O       7.71111     13.41349     11.51347         0.279269      0.115760     -0.442033
O       7.66724      5.72547      2.71895        -0.916685     -0.053123      0.199857
O       7.68899      5.79778     15.72642        -0.055742     -0.432719      0.350231
O       7.64065      5.61853      7.04125        -0.234973      0.548342     -0.208200
O       7.55633      5.71961     11.55530         1.105711     -0.327892     -0.469353
O       7.60574      9.50817      2.74446         0.035939      0.073099     -0.007713
O       7.67409      9.48480     15.80026        -0.126209      0.580496      0.024807
O       7.59871      9.69147      7.13222         0.432041     -0.337457     -0.501999
O       7.65622      9.60615     11.64418        -0.193551     -0.196219     -0.992442
O      11.45529      1.80576      2.53929         0.165362      0.107897      0.290524
O      11.44458      1.88816     15.71033         0.445723     -0.090030      0.186566
O      11.50349     13.44243      2.73750        -0.244600      0.041265     -0.140441
O      11.44893     13.30158     15.87877         0.153221      0.868279     -0.537205
O      11.45020      1.85179      7.18398         0.025216      0.167528     -0.575353
O      11.54749     13.26862      7.03450        -0.205408      0.544296      0.264627
O      11.44069      1.79229     11.54370        -0.276258      0.501565     -0.602030
O      11.42695     13.44409     11.34531         0.101580      0.059960      0.394806
O      11.51097      5.63078      2.82019         0.060470      0.234479     -0.248802
O      11.50934      5.73270     16.00880        -0.337285     -0.083772     -0.423374
O      11.55843      5.92042      7.02237        -0.521183     -0.572263     -0.072167
O      11.47989      5.68621     11.59919        -0.452734      0.298318     -0.161476
O      11.49210      9.59761      2.72941        -0.017054      0.542011     -0.143055
O      11.45195      9.53925     15.70974         0.010521     -0.187680      0.368673
O      11.51752      9.40327      7.11730        -0.283995      0.819352     -0.195554
O      11.49796      9.53487     11.41065        -0.472307      0.174167      0.130838
O       1.83592      3.85125      2.78098         0.530680     -0.175174      0.385883
O       1.90251      3.80268     15.89863        -0.493568      0.751524     -0.205602
O       2.03491     15.34321      2.68964        -1.036957     -0.281554      0.158512
O       1.84510     15.34850     15.81830         0.459869     -0.582759      0.245243
O      13.33387      3.74971      2.73654         0.223414      0.294876     -0.330197
O      13.43115      3.78137     15.95887        -0.138510      0.009576     -0.445555
O      13.48485     15.35517      2.78310        -0.228178     -0.520132     -0.324048
O      13.43625     15.27434     15.70391        -0.632679     -0.015915      0.136132
O       1.84005      3.81606      7.09483         0.465695      0.738393     -0.028897
O       1.81062      0.00820      7.34702        -0.060573     -0.012743     -0.814165
O      13.24745      3.78345      6.97939         0.329773      1.637855     -0.025901
O      13.36095     15.35274      7.06057         0.155224     -0.379473     -0.170613
O       1.91397      3.79731     11.44084        -0.439999     -0.313978      0.139376
O       1.89029     15.31946     11.39809        -0.050383     -0.106769     -0.354784
O      13.29321      3.73856     11.50938         0.544386      0.609442      0.050267
O      13.38596      0.06052     11.47639        -0.051601     -1.155822     -0.051366
O       1.91525      7.65291      2.79356        -0.034207      0.125964     -1.071656
O       1.90774      7.61494     15.88511        -0.422739      1.011185     -0.183616
O      13.30815      7.67849      2.63310         0.787734      0.027655     -0.213217
O      13.47035      7.67650     15.78697        -0.356615      0.111127      0.440963
O       1.86606      7.61748      7.17525         0.104489      0.304524     -0.222580
O      13.47712      7.64936      7.12960         0.081580     -0.712317     -0.450598
O       1.96797      7.65703     11.52914        -0.682624     -0.087119     -0.066168
O      13.32769      7.65025     11.60076         0.259769      0.239569      0.034105
O       1.92859     11.47133      2.55243        -0.645595      0.274901      0.127831
O       2.05226     11.48349     15.86686        -0.812156     -0.793906     -0.758089
O      13.44650     11.56481      2.75208        -0.136182     -0.106468     -0.114523
O      13.41226     11.44481     15.87712        -0.477515      0.057475     -0.480528
O       1.92771     11.52286      7.11540        -0.678978     -0.646891     -0.188019
O      13.49989     11.42352      7.16783        -0.499750     -0.014772     -0.107725
O       1.77373     11.46884     11.48779         0.562441      0.183435     -0.669310
O      13.43888     11.52313     11.39638        -0.477007     -0.011227      0.088433
O       5.67931      3.81746      2.86095         0.114985     -0.125184     -0.280800
O       5.70540      3.82552     15.70466         0.485010      0.235397     -0.074848
O       5.80499     15.27079      2.81318        -0.652228      1.245020     -0.057933
O       5.68369     15.32929     15.82063        -0.041537      0.113657     -0.606785
O       5.69845      3.81097      7.06080        -0.155625      0.568984      0.346779
O       5.77596     15.34570      7.09941         0.097270     -0.936700      0.072887
O       5.69714      3.80060     11.25724        -0.316896      0.195273      0.239512
O       5.75645      0.01317     11.36936        -0.021891      0.053022      0.375473
O       5.56032      7.70686      2.71494         1.158772     -0.717191     -0.540960
O       5.73809      7.66309     15.83057         0.216786      0.130727      0.426290
O       5.73371      7.66426      6.98909         0.215280     -0.085879     -0.058037
O       5.71473      7.68566     11.36857         0.082433     -0.332153      0.097815
O       5.74686     11.55270      2.61629         0.171317     -0.856331      0.581890
O       5.74602     11.50047     15.62889         0.111689     -0.300848      0.336312
O       5.68453     11.50802      7.28909         0.048660      0.036832     -0.504780
O       5.75373     11.54729     11.43858         0.198337     -0.832870      0.144570
O       9.50217      3.68043      2.87195         0.491942      0.181744     -0.460833
O       9.51243      3.80401     15.58757         0.152125      0.633785      0.430059
O       9.52757      0.00659      2.61339         0.084812     -0.573053      0.229144
O       9.56476     15.27128     15.76678         0.145778      0.304061      0.209179
O       9.65314      3.91497      7.08014        -0.129870     -0.250667     -0.162676
O       9.60185     15.27964      7.07972        -0.179445      0.260473     -0.011045
O       9.60639      3.80048     11.64065        -0.188518      0.054345     -0.684190
O       9.49521      0.07177     11.28009        -0.003402     -1.052087      0.154035
O       9.58076      7.63934      2.71926         0.077029      0.310669     -0.236546
O       9.52602      7.59541     16.02275         0.719333      0.482238     -0.752739
O       9.45959      7.66114      7.17656        -0.015593     -0.132754     -0.149373
O       9.54479      7.58029     11.46508        -0.009627      0.760899     -0.044053
O       9.45536     11.47179      2.80586         0.671161     -0.044754     -0.275252
O       9.65389     11.51671     15.71830        -0.881143     -0.679761     -0.178356
O       9.68927     11.44421      7.07910        -0.386839     -0.040639      0.017319
O       9.58236     11.42734     11.42586         0.008028      1.252848     -0.044518
