  # total energy = -7867.38000887 
CRSYTAL
PRIMVEC
    15.010000000000000    0.0000000000000000    0.0000000000000000
     0.0000000000000000   15.010000000000000    0.0000000000000000
     0.0000000000000000    0.0000000000000000    16.400000000000000
PRESSURE
18.8473 19.0764 11.8062 0.107775 0.039247 -0.071261
PRIMCOORD
320 1
Pb       3.75456      3.86414      4.09493        -0.336562     -0.990601      0.365157
Pb       3.79487      3.68565      0.08689        -0.052725      0.159663     -0.714913
Pb       3.67072      0.02511      4.05743         0.486540     -0.210601      0.217339
Pb       3.62434     14.94812      0.01687         0.406609      0.210927     -0.020651
Pb       0.01843      3.65325      4.01028        -0.344800      0.511319      0.962125
Pb       0.09290      3.72872      0.00247        -0.731566      0.195770      0.023083
Pb       0.07558     14.97550      3.96281        -0.499737      0.103206      1.103271
Pb      14.93110     14.96055      0.05427         0.593198      0.018324      0.214594
Pb       3.87682      3.76793      8.21950        -1.043789     -0.659264      0.245817
Pb       3.71272     14.90737      8.18346         0.355290      0.323990     -0.101801
Pb       0.02923      3.74249      8.23737        -0.138894     -0.135205     -0.230763
Pb       0.01858      0.01033      8.21472        -0.466693      0.293744      0.042216
Pb       3.61466      3.79080     12.30111         0.397361     -0.366865      0.722791
Pb       3.77349      0.00440     12.29256         0.171576     -0.115069      0.656854
Pb      14.99581      3.63548     12.33462        -0.565746      0.689142      0.272729
Pb      14.97225     14.98294     12.37806        -0.242346     -0.227220     -0.434043
Pb       3.70815      7.42445      4.00326        -0.040724      0.914703      0.903408
Pb       3.69588      7.37977      0.02335         0.572065      0.662484      0.343231
Pb      14.93413      7.43618      4.09063        -0.046373     -0.090288      0.167140
Pb       0.02222      7.50665     16.37595        -0.664407     -0.015964      0.682014
Pb       3.72633      7.44693      8.11879        -0.247374      0.653964      0.500640
Pb      14.93481      7.45131      8.25324        -0.059627      0.076826     -0.744517
Pb       3.78219      7.61475     12.27850         0.044269     -0.518620      0.306438
Pb       0.07477      7.46340     12.39298        -0.767088     -0.070598     -0.454526
Pb       3.70227     11.35331      4.09885         0.321077     -0.535784      0.516373
Pb       3.75044     11.23962     16.35877        -0.349767     -0.369757      0.501951
Pb      15.00416     11.31410      4.06303        -0.414057     -0.421258      0.475449
Pb      14.95967     11.20616     16.38307        -0.073809     -0.164439      0.047408
Pb       3.82067     11.22665      8.19418        -0.546653     -0.149759     -0.674848
Pb      14.92469     11.24486      8.32045         0.161079     -0.205298     -0.620287
Pb       3.76699     11.33988     12.29676        -0.317984     -0.424201     -0.356902
Pb       0.00361     11.23977     12.32447         0.000062     -0.102779     -0.489133
Pb       7.51846      3.58639      4.07638        -0.501681      0.448181      0.320737
Pb       7.47075      3.76786     16.32511         0.200439     -0.091425      0.707719
Pb       7.45280     14.97140      4.01187        -0.717292      0.385809      0.974963
Pb       7.42432      0.04338      0.04409         0.066427     -0.419938     -0.194677
Pb       7.51005      3.75888      8.24188        -0.237411      0.043474     -0.122732
Pb       7.58886     14.92663      8.21747        -1.184350      0.548402      0.044916
Pb       7.52629      3.69322     12.21518        -0.117394     -0.008797      0.979238
Pb       7.51650     14.94988     12.37043        -0.452933     -0.279101     -0.314139
Pb       7.45651      7.52642      4.02069         0.071272      0.094622      0.663460
Pb       7.46854      7.55199      0.05656        -0.068694     -0.049158     -0.288038
Pb       7.42625      7.58909      8.26713         0.565687     -0.551595     -0.079682
Pb       7.47076      7.38519     12.30482         0.493440      0.182020      0.033322
Pb       7.56186     11.33105      4.05878        -0.356911     -0.146329      0.521015
Pb       7.54813     11.20995      0.03399        -0.147099      0.458245      0.018386
Pb       7.48699     11.26049      8.25885         0.200110     -0.118673     -0.373561
Pb       7.49536     11.15983     12.38663         0.343025      0.507082     -0.624820
Pb      11.24158      3.72147      4.01885         0.388243      0.364488      1.045311
Pb      11.15393      3.65018     16.34963         0.543451      0.522947     -0.003545
Pb      11.22368      0.02737      4.05944         0.671428     -0.202273      1.232276
Pb      11.08269     14.88829      0.07071         0.722858      0.503404     -0.300543
Pb      11.15506      3.75508      8.11536         0.636861      0.080569      0.238698
Pb      11.21934      0.00639      8.20870         0.341491      0.058866     -0.136226
Pb      11.31026      3.70689     12.36421        -0.542665      0.298118      0.628246
Pb      11.23131      0.04420     12.27774         0.170223     -0.641323      0.250295
Pb      11.17306      7.44294      4.09154         0.470783     -0.005390      0.299819
Pb      11.23208      7.53118     16.35829         0.152084     -0.239929      0.709407
Pb      11.17743      7.50935      8.25666         0.228758     -0.354906     -0.725088
Pb      11.34420      7.53443     12.31646        -0.681757     -0.651985      0.428851
Pb      11.34447     11.22950      4.12361        -0.509829      0.169865     -0.057528
Pb      11.30119     11.22076      0.05689        -0.275394      0.133910      0.205282
Pb      11.19254     11.14616      8.20955         0.181160      0.652608      0.036182
Pb      11.26106     11.28875     12.30812         0.064505      0.260842     -0.248092
Ti       1.83489      1.90095      2.12295         0.124216     -0.935784     -0.159740
Ti       1.86512      1.83842     14.41974         0.371581      0.924448      0.676760
Ti       1.84404     13.04703      2.08874        -0.149759      0.966230     -0.370421
Ti       1.86633     13.12736     14.35628        -0.452282     -0.188865      1.504573
Ti      13.11725      1.80833      2.12517        -0.159530      0.516914      0.308220
Ti      13.14327      1.81599     14.52815        -0.599078      1.645599     -1.189710
Ti      13.10868     13.11042      2.14798        -0.174518     -1.100875     -0.576769
Ti      13.15421     13.12819     14.46812        -0.823650     -0.212236     -0.705936
Ti       1.89316      1.84383      6.19045        -1.424935      0.805855     -0.209630
Ti       1.77509     13.14343      6.16184         1.061390     -1.380029      0.545645
Ti      13.11725      1.86807      6.26831        -0.057588      0.310174     -0.512768
Ti      13.11838     13.19699      6.18345        -0.390608     -0.962028      0.773905
Ti       1.80691      1.81110     10.40936         0.495398      0.747143     -0.979978
Ti       1.88095     13.14304     10.23863        -0.709805     -0.938534      1.468484
Ti      13.05047      1.89180     10.34387         0.502426     -0.825258      0.371779
Ti      13.14274     13.14348     10.30271        -0.274099     -0.624185      0.176617
Ti       1.89743      5.64413      2.11916        -1.720448     -0.231771      1.084548
Ti       1.83813      5.59461     14.44041         0.707428      0.112407      0.843929
Ti      13.06963      5.55318      2.10610         0.247654      0.826544     -0.917412
Ti      13.10414      5.61953     14.54012         0.701259     -0.993401     -0.412594
Ti       1.89990      5.61063      6.23310        -1.642023     -0.434683      0.140415
Ti      13.09572      5.57915      6.21674        -0.663762      0.776699      0.191601
Ti       1.84864      5.61221     10.36838        -1.288394     -0.039935     -0.979579
Ti      13.05454      5.55481     10.36665         0.467592      1.425710      0.133707
Ti       1.78166      9.35951      2.19141         0.469886     -0.137266      0.035070
Ti       1.83758      9.31635     14.45544        -0.116197      1.207358      0.246508
Ti      13.06229      9.30313      2.14981        -0.071304      0.462433      0.204872
Ti      13.03515      9.30156     14.37005         1.781237      0.931076      0.828751
Ti       1.86583      9.42308      6.14686        -0.375515     -0.051629      1.078634
Ti      13.09346      9.41330      6.19170         0.278039     -0.454102      0.919926
Ti       1.93567      9.29754     10.31781        -1.321056      1.451350      0.934156
Ti      13.17251      9.33276     10.28630         0.167974      0.296796      0.878606
Ti       5.52512      1.89057      2.15106         1.019560     -0.842987      0.019920
Ti       5.62063      1.82056     14.49124        -0.258135      0.340124     -0.237756
Ti       5.56821     13.10557      2.11438         0.097139      0.283853      1.124118
Ti       5.58199     13.05215     14.47082         1.380332      1.276443     -0.163757
Ti       5.52409      1.81744      6.23269         0.108379     -1.033499      0.477013
Ti       5.61851     13.10788      6.23451        -0.598584      0.417099      0.198502
Ti       5.55920      1.81072     10.36212         0.471634     -1.037150     -0.162672
Ti       5.59898     13.08253     10.29756         1.489601      0.009808      1.174520
Ti       5.67961      5.58760      2.18939         0.127597      0.554261     -1.206847
Ti       5.59630      5.60558     14.42049         0.248640     -0.597063      0.101129
Ti       5.61034      5.63754      6.16430         0.550992     -0.978481      1.246033
Ti       5.54334      5.50520     10.37554         1.146173      1.514873     -0.269386
Ti       5.54775      9.36955      2.17716        -0.852782      0.516765     -0.439996
Ti       5.57827      9.31033     14.46135         1.154269      0.182642      0.626184
Ti       5.63508      9.30402      6.20197        -0.495525      1.978245     -0.677877
Ti       5.68933      9.34616     10.36585         0.224033     -0.133908      0.062874
Ti       9.39395      1.87017      2.15009        -1.536704      0.518932     -0.639088
Ti       9.33439      1.84733     14.41292         0.490747      0.716139      1.347140
Ti       9.38646     13.20226      2.24277        -0.156025     -2.271258     -0.810581
Ti       9.41593     13.16747     14.42001        -1.745846     -0.884606     -0.362525
Ti       9.25281      1.91949      6.20381         0.858363     -0.750814      0.039722
Ti       9.38083     13.21696      6.25529        -0.092420     -0.581950      0.080506
Ti       9.32412      1.80246     10.28258        -0.763411      0.552420      0.887343
Ti       9.36376     13.09464     10.29430        -0.013177     -0.844142      0.880875
Ti       9.32381      5.59459      2.09896         0.045276     -0.029302     -0.476995
Ti       9.34326      5.69152     14.55342         0.953789     -0.165930     -1.670003
Ti       9.32408      5.62477      6.12229        -0.032908      0.816020      1.070835
Ti       9.37504      5.58524     10.36830         0.028462      0.264282      0.814095
Ti       9.28271      9.34940      2.16032         1.452080      1.067837      0.776777
Ti       9.36264      9.45086     14.40368        -0.104649     -0.313707      0.473033
Ti       9.33844      9.39295      6.19880         0.601587     -0.130666      0.250869
Ti       9.46531      9.32535     10.32845        -0.559887      1.035118      0.989616
O       1.76916      1.99158      0.32780         0.543942     -0.491800     -0.242839
O       1.67841      1.90878     12.64246         0.689616     -0.199284     -0.410277
O       1.80159     13.04517      0.29716         0.308367      0.396448      0.276928
O       1.80552     13.19740     12.62246         0.403070     -0.339248     -0.804946
O      13.25274      1.86927      0.37084        -0.546456      0.148951     -0.247220
O      13.02366      1.88024     12.58913         0.626788     -0.312018      1.180554
O      13.02261     13.05195      0.33157         0.316809      0.487951     -0.409538
O      13.11676     13.21580     12.62122         0.113095     -0.181199      1.107459
O       1.87939      1.88560      4.34630        -0.045073     -0.146274      0.730719
O       1.85608     13.11972      4.34607        -0.005868      0.100753     -0.121570
O      13.11695      1.79920      4.50148        -0.047864      0.209910     -1.463362
O      13.09743     13.06532      4.41372         0.005395      0.355171     -0.624484
O       1.91349      1.73769      8.60510        -0.386865      0.383148      0.086152
O       1.80064     13.07814      8.44704        -0.196706      0.136463      0.587075
O      13.06727      1.95410      8.58644         0.159494     -0.342088     -0.836544
O      13.17816     13.14992      8.49174        -0.042017     -0.019720      0.387201
O       1.95933      5.63656      0.36669        -0.402014     -0.096425     -0.696188
O       1.94103      5.70115     12.69214        -0.186508     -0.173938     -1.260924
O      13.02005      5.59112      0.31089         0.446625      0.091613      0.799313
O      13.13924      5.66413     12.74244        -0.373334     -0.398047     -0.575630
O       1.80383      5.55138      4.41855         0.285817     -0.007893      0.327787
O      13.07299      5.70830      4.42738        -0.120321     -0.623459     -0.189526
O       1.87973      5.53374      8.51399        -0.123079      0.572311      0.774053
O      13.09939      5.60881      8.57672        -0.179368      0.085467     -0.214630
O       1.80637      9.36613      0.41908         0.021878     -0.153484     -1.338527
O       1.88002      9.26211     12.67577         0.159950      0.307333      0.151287
O      13.13491      9.40536      0.35878        -0.361903     -0.189788     -0.066999
O      13.09441      9.32821     12.62442         0.396959      0.275707     -0.638959
O       1.83936      9.40705      4.38814        -0.016888     -0.068048     -0.035423
O      13.05402      9.41103      4.39295        -0.045866     -0.124071      0.228851
O       1.80032      9.48097      8.59438         0.269747     -0.532915     -1.285194
O      13.13438      9.33266      8.49381         0.179125      0.068497      0.263061
O       5.63652      1.94713      0.35620        -0.211852     -0.353314      0.211243
O       5.68378      1.77309     12.72142        -0.044689      0.223697     -0.728808
O       5.47687     13.08333      0.37413         0.264637      0.056725     -1.189591
O       5.57070     13.16948     12.67322         0.042942     -0.512281      0.239469
O       5.52056      1.77343      4.47211        -0.289287      0.466272     -1.043717
O       5.55754     13.12574      4.45986         0.086698      0.014668     -0.845259
O       5.54730      1.71913      8.57265        -0.141543      0.681143      0.233266
O       5.65623     13.09469      8.53222        -0.124907     -0.109714     -0.279134
O       5.75715      5.60502      0.38042        -0.343617     -0.024473      0.339599
O       5.63821      5.60456     12.60189        -0.378096      0.108421      0.260284
O       5.55097      5.64205      4.41653         0.118105     -0.047797     -0.491336
O       5.56604      5.53305      8.54637        -0.053591      0.375294      0.153094
O       5.49008      9.47245      0.38841         0.623322     -0.315921     -0.451349
O       5.71710      9.26502     12.67881        -0.443503      0.284225     -0.513940
O       5.56537      9.26461      4.40495         0.349815      0.283988      0.125320
O       5.77117      9.37555      8.57450        -0.607524     -0.143350     -0.637819
O       9.33204      1.84408      0.34974         0.273274     -0.400224      0.258466
O       9.32816      1.82942     12.66588        -0.000076     -0.101076     -0.974349
O       9.48749     13.19060      0.43070        -0.426109     -0.082123      0.056018
O       9.42106     13.07550     12.62033        -0.360055      0.137098      0.277405
O       9.21188      1.92880      4.38152         1.044583     -0.239122      0.512691
O       9.32958     13.28734      4.45106        -0.005919     -0.458696     -0.345002
O       9.26642      1.91312      8.52856         0.132294      0.045023     -1.111317
O       9.28591     13.15451      8.48819         0.332088      0.020928      0.048232
O       9.27706      5.70028      0.27506         0.123047     -0.220740      0.562946
O       9.48568      5.72608     12.70930        -0.672525     -0.225629      0.667978
O       9.38360      5.52717      4.35414        -0.121299      0.156512      0.064544
O       9.40779      5.57437      8.61258        -0.274713      0.040705     -0.752405
O       9.35149      9.54589      0.43159         0.126451     -0.656914     -1.578140
O       9.38069      9.42501     12.63621        -0.010465     -0.001723     -0.332572
O       9.23476      9.33461      4.41174         0.476439      0.241605     -0.219303
O       9.31037      9.35709      8.55847         0.157045     -0.111233     -1.046258
O       3.69078      1.94832      2.38706         0.234853      0.298341      0.061140
O       3.75875      1.90152     14.77059        -0.581093      0.083936      0.055135
O       3.71908     13.09381      2.41428        -0.660248     -0.590996      0.063963
O       3.70471     13.17658     14.74856         0.248095     -0.437106     -0.070914
O      14.93193      1.74657      2.46359         1.176761      0.569160     -0.063524
O       0.03875      1.85414     14.77873        -0.840150      0.477713     -0.147937
O      14.94300     13.20550      2.43734         2.003811     -0.008537     -0.171469
O      14.99368     13.17042     14.74949         0.156007      0.049776     -0.145064
O       3.61965      1.67440      6.64069         1.466522     -0.128736     -0.313740
O       3.69696     13.07632      6.57324         0.069363      0.689223     -0.114725
O      14.97167      2.05938      6.48182         1.706723     -0.265442      0.625256
O      14.95453     12.89518      6.40798         0.362470      0.052374      0.339718
O       3.72384      1.93334     10.86498        -0.110236     -0.123394     -0.618275
O       3.75114     13.14871     10.67557        -0.765587     -0.724978     -0.276020
O      14.96881      1.79487     10.55486        -0.368208     -0.060273      0.369538
O       0.02844     13.13924     10.73408         0.121109      0.406981     -0.733795
O       3.75703      5.56687      2.38067        -0.237591     -0.025327      0.247323
O       3.77266      5.61343     14.82898        -0.352384      0.048580     -0.248169
O      14.96611      5.65251      2.31659         0.612586      0.108276      0.341771
O       0.00183      5.58223     14.81330         0.249787      0.345737     -0.034241
O       3.71989      5.84597      6.48083         0.666491     -1.046544     -0.111422
O      14.92037      5.47540      6.57266         1.673961      0.497757     -0.124973
O       3.70739      5.54954     10.59099         0.292479      0.028921      0.333128
O      14.92724      5.70035     10.72440         1.347258      0.277638     -0.374575
O       3.68023      9.42820      2.41296         0.092726      0.096631      0.338534
O       3.77717      9.36836     14.78779        -1.612780     -0.056903     -0.405371
O      14.92997      9.24717      2.45404        -0.109630      0.015438      0.145532
O      14.92595      9.30344     14.79804         1.056418      0.407201     -0.435404
O       3.76270      9.43600      6.57594        -0.150820     -0.970758      0.168903
O      14.95305      9.49348      6.57038         0.193990     -0.064811     -0.395463
O       3.74693      9.44361     10.65157         1.021383     -0.411513      0.206391
O       0.03208      9.30572     10.68908        -0.344825     -0.359674     -0.089176
O       7.43280      1.79603      2.51637         0.456799     -0.159597     -0.594963
O       7.48882      1.92259     14.85486         0.585281     -0.628964     -0.488912
O       7.41855     13.27858      2.37105         1.360075     -0.220538      0.112846
O       7.52068     13.13598     14.82859        -0.847753      0.052299     -0.093335
O       7.38405      1.88626      6.46037         1.263947      0.428019      0.402514
O       7.44729     13.22291      6.56253         1.113711     -0.382569     -0.193544
O       7.44458      1.79853     10.66479        -0.192536     -0.047940      0.063985
O       7.51528     12.97298     10.77725        -0.969183      0.932055     -0.641844
O       7.50032      5.56195      2.63666        -0.166314      0.834899     -0.711729
O       7.47999      5.64899     14.68262         0.228081      0.331161      0.030882
O       7.44131      5.56407      6.64988        -0.030518      0.021837     -0.683204
O       7.48808      5.69680     10.64009         0.003113     -0.349125     -0.116489
O       7.44856      9.27814      2.32195        -0.199418     -0.224173      0.575731
O       7.51300      9.35590     14.78051        -0.555477      0.210870      0.192700
O       7.51212      9.39270      6.50899        -0.477534     -0.074669      0.245850
O       7.57756      9.36047     10.58798        -0.893821     -0.458618      0.533376
O      11.24632      1.97671      2.52958        -0.044811     -0.601082     -0.721304
O      11.27004      1.79326     14.82693        -0.539526      0.064313     -0.314730
O      11.28943     13.04122      2.48603        -1.296598      0.344972      0.205225
O      11.19702     13.20380     14.67840         2.093496      0.240659      0.484860
O      11.24604      1.77323      6.52056        -1.301379      0.311702      0.070375
O      11.22754     13.35384      6.51238        -0.055391     -0.116930     -0.011361
O      11.16111      1.75807     10.58829         0.903408      0.784831      0.107592
O      11.21685     13.21847     10.70367         0.524141     -0.915740     -0.670656
O      11.14881      5.49311      2.41253         0.536323     -0.071200      0.012606
O      11.31935      5.69011     14.89857        -2.552567     -0.419962     -0.430254
O      11.12092      5.69379      6.55273         1.206609     -0.495876     -0.028728
O      11.20948      5.41325     10.81706         0.830194      0.489840     -0.895852
O      11.19858      9.57742      2.42945         0.413566     -0.836131      0.075109
O      11.26168      9.44581     14.65628        -1.224459     -0.205440      0.656671
O      11.22723      9.33819      6.73068        -0.674811      0.024575     -0.950224
O      11.32090      9.55708     10.65962        -0.250173     -0.433292     -0.356368
O       1.85068      3.71579      2.42478        -0.426292      1.440812     -0.039248
O       1.89040      3.77978     14.68783         0.055788     -0.775851      0.189644
O       1.99049      0.01227      2.31571        -0.619209     -0.722878      0.107515
O       1.89467      0.03178     14.70749        -0.161335     -1.002525      0.278264
O      13.18385      3.76655      2.50556        -0.292193     -1.801007     -0.058657
O      13.09034      3.72779     14.81310         0.101588     -0.645166     -0.225371
O      13.10490     14.93269      2.39958        -0.599618      1.954463      0.206959
O      13.26310      0.05596     14.89362        -0.886631     -1.863493     -0.579734
O       2.14115      3.69639      6.57580        -0.786368      0.850199     -0.413981
O       1.67417     14.95367      6.49282         0.015783      0.695590     -0.059721
O      13.05772      3.74377      6.51139        -0.826200      0.372962      0.245060
O      13.25677      0.01074      6.51411         0.279598     -0.299696      0.552416
O       1.77446      3.77056     10.74123         0.122864     -0.364422     -0.189215
O       1.92631      0.01130     10.73242        -0.140139     -1.191632     -0.418202
O      13.29756      3.76409     10.65092        -0.861914     -1.374003      0.146840
O      13.09777     14.94019     10.56952         0.223531      1.918570      0.216122
O       1.82923      7.51218      2.60400         0.378482     -1.209583     -0.849716
O       1.81654      7.48441     14.79293         0.477627      0.107293      0.142141
O      12.96989      7.41457      2.46597        -0.134567      1.193963     -0.160125
O      13.09575      7.46628     14.78166         0.153729      1.332151      0.093623
O       1.78530      7.49415      6.50652        -0.216717      0.256493      0.287070
O      13.03239      7.48692      6.51125         0.681823      0.498232      0.171359
O       1.95194      7.46030     10.72576        -0.073736     -0.064942     -0.502934
O      13.00862      7.49949     10.71993         0.111400     -0.395755     -0.807766
O       1.74579     11.22337      2.42566         0.015136      0.677725      0.020957
O       1.79978     11.25832     14.70260         0.275081     -0.675878     -0.266316
O      13.27466     11.26826      2.43361        -0.481970     -1.111141     -0.018001
O      13.10092     11.28391     14.74137         0.145042     -0.376021     -0.392316
O       2.03959     11.25283      6.40010        -0.805101     -0.115179      0.240773
O      12.83742     11.31138      6.59459         0.709851     -0.751969     -0.612568
O       1.81582     11.23354     10.70803         0.379124      0.749489     -0.134705
O      13.26630     11.23557     10.64255        -0.302792      0.336358     -0.155190
O       5.67119      3.75746      2.50508        -0.426761     -0.550456      0.033199
O       5.69204      3.73360     14.83443        -0.686219      0.751595     -0.615807
O       5.45548      0.02566      2.47239         0.197105     -0.577135     -0.448938
O       5.61348     14.97828     14.80656         0.103186     -0.121735      0.322302
O       5.41533      3.65468      6.48971         0.031079      2.165949     -0.038793
O       5.55464     14.98768      6.56084        -0.025415     -0.412260      0.228041
O       5.64797      3.68148     10.64341         0.031574      0.368330     -0.023034
O       5.55287     14.90732     10.69072         0.334879      1.015185     -0.142598
O       5.47385      7.47206      2.44058         0.782379     -0.027734     -0.205122
O       5.59387      7.47962     14.91663         0.235191     -0.123667     -0.594005
O       5.56738      7.50249      6.51359         0.732039     -0.830005      0.505051
O       5.64967      7.48042     10.65625        -0.599977     -0.430379     -0.231857
O       5.77177     11.22677      2.50978        -0.635733      0.635673     -0.136816
O       5.65127     11.23384     14.73916        -0.301336     -0.568920     -0.102857
O       5.62639     11.24256      6.51106         0.134046     -0.557442      0.239736
O       5.62557     11.19486     10.65886        -0.215126      0.625428      0.370187
O       9.21360      3.70042      2.25112         0.284754      0.534913      0.673023
O       9.40464      3.76198     14.64612         0.225950     -0.038488      0.432100
O       9.46045      0.00927      2.50210        -0.044613      0.612856     -0.321391
O       9.33471      0.00555     14.75251        -0.167455      0.150513      0.144270
O       9.40841      3.76906      6.56807        -0.619163     -0.516246     -0.249749
O       9.31976      0.08285      6.62850        -0.232851     -0.023203     -0.256144
O       9.24991      3.69152     10.67314         0.360117      0.062250     -0.208722
O       9.30113     14.96422     10.60204        -0.242920      0.056055      0.105427
O       9.42818      7.46412      2.44601        -0.296499      0.356539     -0.213200
O       9.38182      7.57959     14.84037         0.077812      0.085958     -0.134940
O       9.35447      7.51060      6.48017        -0.509860     -0.267678      0.041463
O       9.56820      7.50790     10.62761        -0.245140     -0.900413     -0.033365
O       9.35300     11.28929      2.48391        -0.992295      0.285312      0.294585
O       9.36609     11.29877     14.82848         0.091955     -0.434283     -0.242662
O       9.39971     11.33461      6.51984         0.007233     -0.695302     -0.148103
O       9.30378     11.20833     10.59079         0.649068      0.793567      0.186679
