  # total energy = -7865.83338891 
CRSYTAL
PRIMVEC
    15.010000000000000    0.0000000000000000    0.0000000000000000
     0.0000000000000000   15.010000000000000    0.0000000000000000
     0.0000000000000000    0.0000000000000000    16.400000000000000
PRESSURE
17.2409 17.2236 6.33336 0.102222 -0.039277 -0.003568
PRIMCOORD
320 1
Pb       3.59364      3.63352      4.02229         1.404527      0.533982      0.645939
Pb       3.64869      3.70624     16.36078         0.169444      0.303180     -0.108898
Pb       3.81747     14.89672      4.13132        -0.246325     -0.275481     -0.014659
Pb       3.81934     14.98902      0.09470        -0.181219     -0.396781     -0.602735
Pb      14.99832      3.79946      4.21101        -0.489001      0.220646     -0.453950
Pb      14.91347      3.68993      0.16102         0.009633      0.275436     -1.024778
Pb      14.90999      0.00572      4.24529         0.107679     -0.299935     -1.152268
Pb       0.05734      0.01036      0.09256        -0.118858     -0.365039     -0.374126
Pb       3.60179      3.70370      8.20744         0.470586      0.516018     -0.110848
Pb       3.72707      0.18072      8.24333        -0.067371     -0.420565     -0.449366
Pb      14.83945      3.68835      8.19513         0.377267      0.617792     -0.230778
Pb      14.94556      0.06073      8.22339         0.009841     -0.350805     -0.470221
Pb       3.75431      3.64178     12.45015        -0.065974      0.200143     -0.786843
Pb       3.66461     14.98624     12.28425         0.166297     -0.009839      0.113680
Pb      14.89032      3.79891     12.33159         0.208538     -0.391712      0.669467
Pb      14.96152     15.00845     12.33304        -0.081829     -0.291890     -0.061254
Pb       3.90906      7.55509      4.20697        -0.595157     -0.599972     -0.749064
Pb       3.76397      7.59626     16.37782         0.032113     -0.238107     -0.454654
Pb       0.16717      7.54084      4.16343        -1.240838     -0.094507      0.013690
Pb       0.09707      7.41103      0.07585        -0.919333      0.155699     -0.689557
Pb       3.72660      7.51788      8.37468        -0.119074     -0.333220     -0.329270
Pb       0.04279      7.53501      8.22637        -0.109038      0.007274      0.090573
Pb       3.66709      7.32332     12.38713         0.086456      0.995084     -0.512088
Pb      14.92621      7.53227     12.30389        -0.036989      0.303969     -0.081960
Pb       3.90479     11.06814      4.09522        -0.499702      0.983125      0.142392
Pb       3.76905     11.27535      0.19494        -0.070586     -0.002508     -0.927445
Pb       0.08130     11.16917      4.18584        -0.261615      0.559130     -0.877022
Pb       0.09015     11.20122      0.13717        -0.384786      0.364167     -0.787897
Pb       3.70036     11.31099      8.23624         0.464366     -0.479442     -0.160336
Pb       0.05197     11.28605      8.16248        -0.485208     -0.238930      0.510131
Pb       3.72775     11.13310     12.34062        -0.311164     -0.062212     -0.228832
Pb       0.00597     11.21282     12.30364        -0.630726      0.132807     -0.242954
Pb       7.41025      3.87449      4.08876        -0.029916     -0.806165      0.074190
Pb       7.44502      3.69257      0.09671        -0.067869      0.012737     -0.330041
Pb       7.52138     14.93342      4.07061        -0.161726      0.143244      0.509128
Pb       7.61342     14.87359      0.04278        -0.388677      0.659542     -0.309105
Pb       7.42321      3.80636      8.29897         0.039352     -0.064746     -0.942724
Pb       7.37852     15.00498      8.26436         0.474747      0.283738     -0.308896
Pb       7.39070      3.74266     12.40923         0.087239      0.586635     -0.435248
Pb       7.41044      0.07611     12.21724         0.388444     -0.537910      0.373444
Pb       7.65307      7.41756      4.16645         0.163692      0.538935     -0.150533
Pb       7.50100      7.40274     16.38400        -0.270057      0.368636     -0.191208
Pb       7.59159      7.42216      8.18890        -0.387635     -0.475265      0.351761
Pb       7.44823      7.58209     12.22359         0.024594     -0.777652      0.056944
Pb       7.52301     11.09199      4.16032         0.125690      0.327927     -0.090197
Pb       7.46726     11.24813     16.39055        -0.176130     -0.156878      0.425669
Pb       7.57632     11.26966      8.21525        -0.254372      0.052205     -0.632462
Pb       7.48397     11.32783     12.26719        -0.161828     -0.266270     -0.121029
Pb      11.31517      3.75932      4.19587        -0.477300      0.098175     -0.700847
Pb      11.23741      3.75902      0.10064         0.048215     -0.327194     -0.109707
Pb      11.20478     14.89899      4.08901         0.235528      0.640952     -0.310252
Pb      11.38481     14.98148     16.39533        -0.859779      0.338793      0.328179
Pb      11.18056      3.66917      8.38723        -0.301951      0.300621     -1.300750
Pb      11.19233     15.00667      8.21542         0.235901      0.054892     -0.593453
Pb      11.13999      3.74821     12.35117         0.167535     -0.048500     -0.112924
Pb      11.16564     14.83336     12.39657         0.210238      0.877247     -0.828197
Pb      11.32596      7.50643      4.12236        -0.073551     -0.241923     -0.092811
Pb      11.22882      7.41547     16.38646         0.759751      0.111005      0.536990
Pb      11.31870      7.47291      8.24524        -0.148613      0.184254     -0.388669
Pb      11.02363      7.52385     12.34318         0.606471     -0.354667     -0.003166
Pb      11.19754     11.19807      4.11187        -0.101723     -0.165287      0.040390
Pb      11.17329     11.34291      0.02316         0.398964     -0.596160     -0.311611
Pb      11.33213     11.40218      8.19653        -0.206009     -0.906135     -0.419718
Pb      11.14076     11.21900     12.35181         1.151020     -0.201211     -0.147452
Ti       1.85102      1.88724      2.10838        -0.450513     -1.233779      0.506457
Ti       1.86651      1.81672     14.36103        -0.577902      0.111627      0.147874
Ti       1.86248     13.13990      2.14563        -0.387344     -0.734117      0.657559
Ti       1.85559     13.09635     14.41319         0.070553     -0.140744     -0.776087
Ti      13.10245      1.89622      2.07418        -0.632326     -0.753264      0.901353
Ti      13.07313      1.83648     14.43912         0.542021      0.631949     -0.601515
Ti      13.13858     13.11248      1.95488         0.770172      0.174946      1.363513
Ti      13.12010     13.07055     14.36173         1.030242     -0.485198      0.171398
Ti       1.75328      1.89068      6.13932         1.501803     -0.335223      0.363979
Ti       1.92317     13.11034      6.21817         0.136215      1.426410     -0.783078
Ti      13.05064      1.89754      6.11579        -0.688153     -0.452252     -0.384910
Ti      13.18697     13.11531      6.06372        -0.884420      0.784944      0.204320
Ti       1.75265      1.92940     10.29187         1.119193     -0.102670      0.000316
Ti       1.89778     13.16452     10.25262        -1.435831     -0.918307      0.157992
Ti      13.05778      1.85421     10.37575        -0.648886      0.111189      0.139096
Ti      13.08735     13.12228     10.23571         0.990040     -0.972464      0.172260
Ti       1.82158      5.60111      2.05151         0.424113      1.306186     -0.298667
Ti       1.81389      5.62013     14.36458        -0.941092     -0.578700      0.406208
Ti      13.09729      5.65099      2.06177        -0.489290      0.313274      0.709313
Ti      13.10397      5.60253     14.28587        -0.544211      0.087825      0.871303
Ti       1.86522      5.63454      6.17629         0.240206     -0.192392      0.233176
Ti      13.13962      5.70592      6.26002        -0.748205     -0.909029     -0.740617
Ti       1.77699      5.59960     10.39367         0.501501      0.460443     -1.294337
Ti      13.07127      5.61323     10.30716        -0.007487      0.246219     -0.193265
Ti       1.80500      9.34708      2.01582         0.211867      0.532161      0.555310
Ti       1.86757      9.34197     14.33809         0.152580      0.658356     -0.358680
Ti      13.07579      9.39356      2.09296        -0.057428     -0.566181     -0.335186
Ti      13.09931      9.32329     14.48671         0.427544      0.849857     -0.742931
Ti       1.95495      9.39931      6.18257        -0.534528     -0.637190      0.096900
Ti      13.16950      9.44961      6.19332        -0.858712     -0.995647     -0.159360
Ti       1.82903      9.39756     10.24988         0.355553     -0.721860      0.092940
Ti      13.07651      9.33028     10.31570         0.157373      1.522793     -1.084832
Ti       5.59753      1.77410      2.10097         0.133908      1.550850      0.501118
Ti       5.63871      1.88940     14.44087        -0.158166     -1.644617     -0.236285
Ti       5.62795     13.04627      2.12548         0.249968     -0.446274      0.777351
Ti       5.60331     13.08605     14.32377        -0.329697      1.144558      0.548467
Ti       5.62656      1.87282      6.12535         1.698113      0.547970     -0.401282
Ti       5.61622     13.10542      6.27418         0.517795     -0.129738     -1.372978
Ti       5.62216      1.84185     10.33326        -0.902665      1.514603     -0.713654
Ti       5.52484     13.04521     10.25022         0.750810      0.879984      0.124434
Ti       5.54338      5.64320      1.93443         0.044983     -1.332106      0.604854
Ti       5.59036      5.63686     14.35193         0.273498     -0.065256      0.805506
Ti       5.53237      5.60466      6.09867         0.918249     -1.026452      0.303389
Ti       5.51466      5.62657     10.27888         1.256067     -0.496788     -0.100557
Ti       5.62010      9.24774      2.11212         1.259856      1.567265     -0.737030
Ti       5.68606      9.34774     14.32741        -1.143066      0.410278     -0.114230
Ti       5.68760      9.24216      6.27534        -0.179032      1.812680      0.475979
Ti       5.62195      9.37816     10.22410        -0.347714     -0.879003      0.146910
Ti       9.31374      1.91189      2.07489         1.204569     -0.117224      0.372501
Ti       9.37642      1.89481     14.35623         0.098420     -0.343062      0.897583
Ti       9.37722     13.13710      2.08894         0.148753     -0.378762     -0.229234
Ti       9.33413     13.13627     14.35695         0.109070     -0.381987      0.449857
Ti       9.33061      1.81749      6.16813        -0.259418      1.714385     -0.319111
Ti       9.39719     13.19322      6.18694        -0.026368     -1.476727     -0.486202
Ti       9.33479      1.88800     10.28268         0.644434     -0.934175     -0.482063
Ti       9.36219     13.10334     10.21962        -0.300654      1.204611     -0.116039
Ti       9.31836      5.57932      1.98590         1.241185      0.211016      1.026449
Ti       9.32320      5.56353     14.46933         0.292083      0.756923     -1.109291
Ti       9.37751      5.56890      6.15215         0.021390     -0.311600      0.835889
Ti       9.33058      5.60427     10.27419        -0.400746      0.607180      0.050898
Ti       9.37469      9.33378      1.88780        -0.697950     -0.148772      0.543330
Ti       9.38185      9.34135     14.41268        -0.429942      0.209542     -0.174390
Ti       9.37190      9.36692      6.35473         0.894781      0.367961     -1.311313
Ti       9.35553      9.40228     10.31851        -0.292566     -1.225540     -0.564953
O       1.89577      1.76386      0.31468         0.205515      0.755048     -0.807471
O       1.94080      1.81186     12.52235        -0.290206     -0.149986      0.308352
O       1.78287     13.09737      0.32664         0.351900     -0.268855     -0.962461
O       1.81379     13.13840     12.48767         0.106310     -0.152797      1.153314
O      13.10623      1.92637      0.23413         0.380231     -0.267378     -0.313220
O      13.06019      1.81317     12.59564        -0.021638      0.057071      0.252171
O      13.22184     13.21556      0.11811        -0.454472     -0.685885      1.077189
O      13.11795     13.03903     12.52247         0.151819      0.651932     -0.072749
O       1.79117      1.91490      4.30272        -0.071141     -0.103220      0.545969
O       1.88216     13.17361      4.38973         0.019522     -0.078090      0.025989
O      13.12887      1.85322      4.24367         0.000777      0.204527      1.065436
O      13.15702     13.13076      4.24158        -0.128361      0.312646      0.929341
O       1.68748      1.86477      8.41489         0.252014      0.351007      1.078158
O       2.02466     13.11773      8.42322        -0.335075      0.230523     -0.214065
O      13.14539      1.90413      8.50415        -0.060532     -0.357549      0.492760
O      13.05626     12.98293      8.35870         0.346914      0.849194      0.939433
O       1.74861      5.64366      0.17562         0.355226     -0.263759      0.844446
O       1.74877      5.60328     12.51614         0.542333      0.515147      0.732575
O      13.06595      5.63284      0.25751         0.520564     -0.163485     -0.237831
O      13.14717      5.73264     12.43922        -0.231848     -0.052084      1.272667
O       1.82627      5.43786      4.33980         0.340505      1.097288     -0.156516
O      12.93009      5.61850      4.39477         0.911023     -0.134836      0.431262
O       1.78646      5.59103      8.51797         0.191545      0.037091      0.079603
O      13.06061      5.61816      8.42607         0.192076     -0.435335      0.743846
O       1.87743      9.43039      0.16909        -0.180697     -0.503852      0.937438
O       1.92663      9.40385     12.44115        -0.219171     -0.006761      0.712969
O      13.02420      9.39135      0.22773         0.458084      0.077873      0.713394
O      13.12490      9.37141     12.56910        -0.081336     -0.583525      0.429153
O       1.84195      9.37128      4.31616         0.473751     -0.116686      0.550872
O      13.14980      9.34118      4.32550        -0.400773      0.180570      0.746942
O       1.83246      9.29030      8.36243        -0.021630      0.276876      0.125097
O      13.18710      9.45799      8.38089        -0.170905      0.064947      0.915084
O       5.57972      1.88646      0.24785        -0.102509      0.125301      0.066141
O       5.54343      1.79135     12.55922         0.079828     -0.065415     -0.033338
O       5.55798     13.03254      0.33717         0.378168      0.082632     -1.135853
O       5.62738     13.23096     12.50806         0.067247     -0.596152      0.011318
O       5.69607      1.85209      4.27619        -0.356150     -0.365459      0.443580
O       5.66834     13.22571      4.33940        -0.441938     -0.280635      0.673976
O       5.76289      1.96305      8.46389        -0.301153     -0.156781      0.912271
O       5.43240     13.13050      8.43306         0.502696     -0.191531     -0.328784
O       5.66278      5.58021      0.10004        -0.528090      0.003585      0.663659
O       5.62620      5.61869     12.55712        -0.065819      0.404340     -0.467558
O       5.49339      5.69587      4.23696         0.326038      0.024212      0.905478
O       5.47789      5.44186      8.47965         0.129677      0.308843      0.176002
O       5.66436      9.42289      0.29278        -0.388959     -0.380125     -0.176298
O       5.55366      9.41977     12.49350         0.172171     -0.219905      0.892846
O       5.74799      9.31322      4.37483        -0.718644     -0.307801      0.081111
O       5.64835      9.39240      8.40249         0.087781      0.019175      0.265761
O       9.38082      1.86773      0.23968        -0.654021     -0.015316      0.323080
O       9.37481      1.88214     12.56492         0.338527      0.343864     -0.264708
O       9.43822     13.15103      0.19375        -0.398307      0.336621      0.660288
O       9.34251     13.04323     12.49540        -0.046363      0.038969      0.624294
O       9.34151      1.76270      4.34844         0.115231      0.379175     -0.109666
O       9.46773     13.17153      4.29829        -0.306562     -0.211628     -0.258989
O       9.23017      1.88565      8.41944         0.775063     -0.564237      1.214364
O       9.43105     13.09731      8.36631        -0.036146      0.367011      0.744625
O       9.34850      5.56129      0.14025        -0.165424      0.168225      1.011916
O       9.20621      5.60866     12.58083         0.913543     -0.154218      0.002674
O       9.25886      5.55401      4.31147         0.395417      0.320649      0.523900
O       9.48927      5.60341      8.44688        -0.156480      0.332408      0.238482
O       9.25473      9.22951      0.05613         0.644199      0.584672      1.944989
O       9.44591      9.33850     12.51221        -0.582362      0.248332      0.492967
O       9.19017      9.42896      4.48011         0.482686     -0.372204     -0.032383
O       9.31305      9.34148      8.47667        -0.121248      0.225278     -0.046635
O       3.68436      1.78486      2.51169         1.045777     -0.270308     -0.673894
O       3.76485      2.04969     14.58720        -0.832523      0.134221      0.442575
O       3.76318     13.10281      2.28452        -0.615778      0.279905      0.641616
O       3.78852     12.89234     14.68755        -0.588623     -0.167482     -0.112591
O       0.00058      2.05273      2.34427         0.116700      0.127787     -0.262514
O      14.97900      1.66995     14.66024         0.825752     -0.375163     -0.093386
O      14.99502     12.92223      2.39942        -0.198540      0.065279     -0.484220
O       0.01232     13.26992     14.65545         0.203629      0.294402     -0.401493
O       3.86817      1.88152      6.46464        -2.745624     -0.322479      0.161450
O       3.78212     13.25410      6.33377        -0.270869      0.645059      0.264741
O      14.97813      1.87681      6.42571        -0.886984      0.356236     -0.099219
O       0.03090     13.01122      6.46654        -0.138047      0.235513      0.007814
O       3.69556      1.84557     10.37413         0.304975     -0.536387      0.221715
O       3.70537     13.20550     10.56545         0.429959      0.124237      0.314011
O      14.94659      2.14532     10.68525         0.288119     -1.195052     -0.667837
O      14.96818     13.03186     10.35962         0.356321     -0.181451      0.300540
O       3.71051      5.87130      2.15833        -0.465254      0.479205      0.201095
O       3.67287      5.54737     14.58285         0.811366     -0.501078      0.044276
O      14.96928      5.50883      2.26552         0.284082     -0.708330      0.431852
O      14.95154      5.85302     14.60790         0.253068      0.231825     -0.084477
O       3.74071      5.70626      6.58478        -0.970786      0.242606     -0.575080
O      15.00316      5.46373      6.34576        -0.325765      0.079110      0.339715
O       3.72093      5.76499     10.64705        -0.529050      0.016029     -0.138796
O      14.97658      5.37951     10.63723        -0.688588      0.672172     -0.756232
O       3.71513      9.07283      2.29389         0.340025      0.480854      0.236209
O       3.71116      9.47532     14.59983         1.985033      0.166192      0.237515
O      14.94087      9.62361      2.36006         0.376511     -0.498323     -0.534769
O       0.05156      9.16492     14.55232        -1.464123     -0.090715      0.227622
O       3.76546      9.19189      6.49204         0.121585     -0.106898     -0.463183
O       0.01661      9.58905      6.28085         0.397221      0.068059      0.616894
O       3.77855      9.23286     10.44926        -0.450150     -0.070272      0.050280
O      14.95587      9.44431     10.46835         0.840579      0.441360      0.381738
O       7.44133      2.12341      2.35170        -0.232191     -0.251340     -0.552870
O       7.51195      1.74507     14.54858        -0.576375     -0.264287      0.410601
O       7.52354     12.92070      2.25450         0.433753      0.268951      0.169278
O       7.47665     13.34475     14.70752         0.239205     -0.361390     -0.366308
O       7.53951      2.05251      6.43212        -1.022810     -0.094158     -0.011094
O       7.53008     13.04635      6.39194        -0.474667     -0.152615      0.582147
O       7.54703      1.93834     10.72422        -1.366788      0.195180     -0.442404
O       7.43502     13.07495     10.36722         0.522390     -0.457786      0.460025
O       7.49626      5.30916      2.17189        -0.632152      0.417323      0.005972
O       7.48308      5.73128     14.61996         0.095950      0.013067      0.194294
O       7.47112      5.48551      6.52025         0.018929      0.275808     -0.304142
O       7.48730      5.51743     10.45087        -0.018563     -0.751430      0.139273
O       7.54876      9.58808      2.27252        -0.346691     -0.288780      0.099269
O       7.51072      9.10906     14.65962        -0.106194      0.312388     -0.677201
O       7.47774      9.56460      6.55328        -0.026276     -0.134245     -0.045073
O       7.47122      9.45985     10.72045         0.471517      0.834266     -0.543030
O      11.22313      1.75491      2.25466         0.184166     -0.558317      0.199348
O      11.25440      2.11964     14.75596        -0.071532     -0.529050     -0.517073
O      11.27443     13.32491      2.21557        -0.189206      0.147142      0.044584
O      11.27205     12.87705     14.64901        -1.293084      0.504542     -0.505624
O      11.22215      1.77614      6.44715         0.596076     -0.221318      0.280955
O      11.31116     13.29131      6.33970        -0.484136      0.078753      0.351686
O      11.16868      1.64014     10.67190         1.060745      0.748943     -0.589343
O      11.23311     13.22080     10.42935        -0.246733      0.045711      0.336341
O      11.24836      5.80544      2.34969        -1.054015      0.082532     -0.209761
O      11.21839      5.29387     14.71314         1.280561      0.973429     -0.942134
O      11.25393      5.94226      6.46260        -0.704694     -0.711161     -0.367149
O      11.23846      5.76544     10.64150         0.062039      0.150499     -0.242680
O      11.17280      9.09975      2.32629         0.519697      0.353859      0.063566
O      11.18096      9.58359     14.63826         1.344862      0.314615     -0.082831
O      11.23978      9.29711      6.42020         0.130521     -0.498030      0.151432
O      11.20425      9.25902     10.56684         0.277270     -0.532538     -0.048430
O       2.02957      3.81371      2.33556        -0.188774     -1.341834     -0.711951
O       1.66986      3.69155     14.61228         0.276641      0.665301      0.305509
O       1.79185     14.93358      2.29851        -0.275866      1.919527      0.435053
O       2.12378     14.96533     14.68861        -0.069741      0.162755     -0.129321
O      12.89929      3.75408      2.26273         0.507515      0.114283      0.384017
O      13.39809      3.78225     14.60811        -0.271331     -0.282470     -0.101756
O      13.32702     15.00148      2.26834         0.056241     -0.091555     -0.087724
O      12.93611     14.96143     14.62637        -0.106335      0.540047     -0.316204
O       1.84883      3.76014      6.39076         0.589270     -0.951088      0.483034
O       1.86143      0.07354      6.53852        -0.138851     -0.919244     -0.310986
O      13.01438      3.70882      6.44951         0.098361      0.823255     -0.001001
O      13.19347      0.02520      6.35129         0.593805     -0.681601      0.383539
O       2.03412      3.76652     10.62697        -0.092804     -0.816168     -0.250581
O       1.72996     14.97881     10.52979        -0.190172      1.583486     -0.139767
O      13.00242      3.73649     10.67827        -0.804552      0.205620     -0.430281
O      13.15762      0.01067     10.53899         0.762566     -0.716030     -0.029185
O       1.55419      7.51106      2.35090         0.588188     -0.270117     -0.437328
O       2.08076      7.49078     14.70531        -0.518827     -0.238664     -0.446205
O      13.28821      7.50467      2.45240         0.025846      0.461696     -0.415263
O      12.94840      7.49230     14.77435        -0.322523     -0.558711     -0.739634
O       1.67821      7.48161      6.34627         0.230918      0.580810      0.010636
O      13.29011      7.49917      6.55504         0.172227      1.308254     -0.312351
O       1.81133      7.53146     10.49651        -0.475785     -1.076867      0.353398
O      13.34196      7.49971     10.37386        -0.278805     -0.660484      0.336420
O       1.92256     11.17987      2.35860         0.854734      0.085833     -0.030790
O       1.74274     11.22598     14.64786        -0.241959      0.317548     -0.156521
O      12.91934     11.26959      2.43501        -0.305617     -0.324487     -0.875423
O      13.27113     11.22581     14.61986         0.474346     -0.259662      0.219539
O       2.11723     11.28133      6.42169        -0.447214     -0.870756      0.022947
O      12.92893     11.29184      6.35762         0.382658     -0.350234     -0.130994
O       1.99635     11.21386     10.37963        -0.042108      0.971804      0.443504
O      12.98852     11.22186     10.62876        -0.063438      0.525918     -0.443457
O       5.39381      3.82183      2.24986        -0.270991     -1.168382      0.056134
O       5.73383      3.74839     14.48511         0.122828     -0.143766      0.493334
O       5.68994     14.93875      2.30796         0.197773      1.039870     -0.162008
O       5.38527     14.97190     14.74567         0.467729      0.237515     -0.341907
O       5.56125      3.80521      6.27146        -0.125632     -0.987030      0.267490
O       5.83796      0.02052      6.55793        -0.694178      0.097078     -0.442855
O       5.53584      3.77024     10.68473         0.049675     -1.051828     -0.005864
O       5.63367     14.99753     10.43001         0.335915      0.194674      0.254721
O       5.85339      7.45927      2.35528         0.231252      0.016286     -0.182381
O       5.63896      7.47806     14.65796        -1.233069      0.658351     -0.000024
O       5.73404      7.44448      6.56532         0.006252      0.225187     -0.369956
O       5.83666      7.48911     10.45867        -0.569746      0.181130      0.080343
O       5.52634     11.20118      2.40571        -0.407387     -1.100645      0.184495
O       5.87944     11.23008     14.60306        -0.077683     -0.137195     -0.279486
O       5.47732     11.24336      6.37447        -0.003713     -0.227437      0.115311
O       5.47313     11.22648     10.51119         0.215633      0.467213      0.265469
O       9.58150      3.75952      2.45216        -0.259951     -0.165770     -0.560588
O       9.27993      3.73937     14.66790        -0.801993     -0.617954     -0.182094
O       9.17994      0.03427      2.35162        -0.056739     -0.888344     -0.476535
O       9.50622     14.99807     14.53907         0.504797     -0.254143      0.278162
O       9.51381      3.75171      6.50502         0.526989      0.192455     -0.261101
O       9.29785     15.00247      6.42374        -0.216688      0.103530      0.644716
O       9.63054      3.73964     10.35386        -0.279970     -0.304803      0.907764
O       9.30898     14.97661     10.61532        -0.414150     -0.417477     -0.339775
O       9.11443      7.43556      2.34394         0.121732      0.477611     -0.401946
O       9.74028      7.48841     14.68192        -1.097306     -0.742259     -1.137044
O       9.12238      7.47285      6.42168         0.353985      0.599767     -0.043464
O       9.13167      7.47242     10.49198         0.813738      0.819239      0.337044
O       9.66468     11.20760      2.19001        -0.373305      0.364243      0.117291
O       9.11468     11.24131     14.73543         0.413967      0.296100     -0.900904
O       9.47673     11.32109      6.41086         0.034845     -0.825815      0.452569
O       9.50302     11.23682     10.51552        -0.514133      0.653942      0.047674
