  # total energy = -7880.99747043 
CRSYTAL
PRIMVEC
    15.3600000000000000    0.0000000000000000    0.0000000000000000
     0.0000000000000000   15.3600000000000000    0.0000000000000000
     0.0000000000000000    0.0000000000000000    17.440000000000000
PRESSURE
0.972213 1.04341 -3.48803 -0.37354 -0.342682 -0.015739
PRIMCOORD
320 1
Pb       3.85279      3.84534      4.26572        -0.272458     -0.379426     -0.058443
Pb       3.76513      3.89119     17.38546         0.038149      0.295702      0.027390
Pb       3.88274     15.35140      4.25572        -0.475558     -0.122343      0.169451
Pb       3.95948     15.33834      0.02671        -0.860984      0.262870     -0.007994
Pb      15.29350      3.91870      4.31145         0.107196     -0.404644     -0.078840
Pb      15.21619      3.71458     17.35145         0.274845      0.837078      0.544870
Pb      15.28736     15.35592      4.38545         0.074015      0.022708     -0.114529
Pb       0.16524      0.04559     17.37824        -0.647085     -0.740523      0.410607
Pb       3.97800      3.87763      8.59986        -0.561268     -0.007923      0.439957
Pb       3.79884     15.28385      8.68361         0.044457      0.234099      0.242293
Pb       0.15966      3.72876      8.69732        -0.094303      0.153277     -0.319126
Pb       0.14143     15.29002      8.61157        -0.666420      0.242500      0.126551
Pb       3.91548      3.93930     13.09583        -0.603796     -0.264896     -0.295616
Pb       4.02105      0.03780     13.20706        -0.478000     -0.448404     -0.391068
Pb      15.27808      3.89223     12.94075         0.142103     -0.464263      0.685968
Pb      15.31651      0.00280     13.03424         0.197168      0.013044      0.227707
Pb       3.77512      7.65087      4.34396         0.401282     -0.032371      0.023190
Pb       3.88594      7.76974     17.42907        -0.457146     -0.173166      0.023771
Pb      15.18389      7.50092      4.31074         0.079856      0.210407      0.122256
Pb       0.20321      7.61437     17.43267        -0.507684      0.194734      0.400145
Pb       3.76278      7.63645      8.63740         0.225202     -0.343261      0.068550
Pb      15.29793      7.72610      8.63463         0.449799     -0.049019      0.100463
Pb       3.86233      7.79810     13.09107        -0.328396      0.055962     -0.290899
Pb      15.27525      7.74294     12.93651         0.345407     -0.521923      0.206109
Pb       3.89592     11.41062      4.39316        -0.006121      0.595824     -0.098662
Pb       3.68339     11.48523      0.02201         0.099617     -0.099095     -0.450719
Pb      15.31091     11.37436      4.34504        -0.239436      0.389687     -0.060315
Pb       0.08558     11.39570      0.09423        -0.285140      0.376424     -0.342109
Pb       3.78463     11.46563      8.65600        -0.018676      0.142718      0.307772
Pb       0.09102     11.65020      8.62127        -0.454851     -0.881949      0.314860
Pb       3.74145     11.58292     13.02890         0.576996     -0.400987      0.205112
Pb      15.13645     11.45000     12.95378         1.178129      0.225072      0.819374
Pb       7.57068      3.94851      4.23232         0.086358      0.129320      0.327883
Pb       7.68160      3.81145     17.42037        -0.233019      0.305941     -0.260728
Pb       7.55066     15.30707      4.26804         0.388495     -0.164105      0.416783
Pb       7.82505     15.25352      0.02244         0.148252      0.195781     -0.206392
Pb       7.69813      3.82575      8.64148        -0.279657     -0.267935      0.784814
Pb       7.70255      0.10094      8.69966        -0.345496     -0.549197      0.546449
Pb       7.53771      3.67272     13.00693         0.140285      0.494429     -0.063091
Pb       7.70835     15.11449     13.13989        -0.410117     -0.019576     -0.782112
Pb       7.63606      7.79171      4.38582        -0.172463     -0.251203     -0.189385
Pb       7.72146      7.55072     17.36725        -0.165131      0.538877      0.653513
Pb       7.68147      7.56822      8.73525         0.133616      0.067293     -0.409923
Pb       7.78498      7.65172     13.11175        -0.622640     -0.165099     -0.208103
Pb       7.64904     11.48677      4.30065        -0.248191      0.131832     -0.103385
Pb       7.67446     11.44266     17.32118         0.303304     -0.212198      0.521525
Pb       7.74259     11.48779      8.79928        -0.189535     -0.253213     -0.214290
Pb       7.56892     11.52003     13.06193        -0.528183      0.295572      0.041186
Pb      11.58402      3.92684      4.35323        -0.515227     -0.386858      0.430850
Pb      11.32641      3.78734     17.36819         0.137248     -0.144811     -0.387147
Pb      11.54128      0.12282      4.35139        -0.430378     -0.476279      0.285857
Pb      11.65906      0.06633     17.36479        -0.266769     -0.559248      0.535140
Pb      11.68009      3.67891      8.67603        -0.496877      0.094231      0.159886
Pb      11.51978      0.03270      8.67701         0.051326     -0.135047     -0.095279
Pb      11.42028      3.89539     12.87742         0.500785     -0.286452      0.848226
Pb      11.43788     15.31653     13.12653         0.143069      0.081480     -0.362082
Pb      11.53644      7.65683      4.41732         0.231506      0.337300     -0.171511
Pb      11.42815      7.70274     17.32664         0.454006      0.081775      0.231159
Pb      11.49857      7.61039      8.67198        -0.490754      0.511929      0.065660
Pb      11.61266      7.66218     13.05779        -0.032605      0.053237     -0.365703
Pb      11.40180     11.56152      4.35223         0.639145      0.126642     -0.013933
Pb      11.60740     11.55705     17.40639        -0.041813     -0.146030      0.215669
Pb      11.37983     11.53070      8.73929         0.492859     -0.302056     -0.273041
Pb      11.43644     11.59201     13.08106        -0.111475     -0.177809     -0.115689
Ti       1.78842      1.93061      2.32710         0.590791     -0.125761      1.281550
Ti       1.82986      1.99165     15.40891         0.416620     -0.499462     -2.461607
Ti       1.81177     13.41986      2.44888         0.192215      0.109610     -1.464216
Ti       1.91952     13.50384     15.37908        -0.985556     -0.743575      0.348025
Ti      13.37193      1.91296      2.35068        -0.038681     -0.107132     -0.503244
Ti      13.36587      1.95762     15.32659        -0.914975     -0.772089     -0.040155
Ti      13.35273     13.42960      2.39576         0.322928     -0.178423     -0.834320
Ti      13.48422     13.38795     15.40999         0.087544      0.675005     -0.771996
Ti       1.89132      1.80173      6.52896        -0.564823      0.848220     -1.607143
Ti       1.91818     13.39367      6.50448         0.032571     -0.861291      0.157932
Ti      13.46613      1.87529      6.66228        -0.464518     -0.024211      0.492032
Ti      13.37614     13.42552      6.66234        -0.901750     -0.473084     -0.918041
Ti       1.86970      1.89426     11.10637         0.373376     -0.244426     -0.218954
Ti       1.87449     13.43966     11.13809         0.353020      0.320874     -0.174122
Ti      13.34842      1.79730     11.11293        -0.149247      0.671287     -2.392127
Ti      13.39460     13.39243     11.07891        -0.367676      0.101234     -1.347944
Ti       1.90416      5.71952      2.36788        -0.812964     -0.069114     -1.453645
Ti       1.82198      5.76803     15.37537         0.814668      0.674503      1.002050
Ti      13.28401      5.72895      2.13843         1.297218     -0.029781      2.544611
Ti      13.39609      5.76778     15.37550        -0.255406     -0.071900     -1.278860
Ti       1.85803      5.66711      6.57149         0.069630     -0.369036     -0.353790
Ti      13.39387      5.71598      6.74883         0.265360     -0.358195      0.106520
Ti       1.94475      5.72242     11.03181        -0.113344      0.063829     -1.507882
Ti      13.41624      5.72037     10.95859         0.069242     -0.172124     -0.431274
Ti       1.99758      9.54352      2.41503        -1.535729      0.120579     -1.392307
Ti       1.90087      9.62621     15.34010         0.549821     -0.587486      0.123914
Ti      13.49314      9.54429      2.38269        -2.174095      0.125311     -0.941872
Ti      13.50312      9.54779     15.41491        -0.385774     -0.105262     -0.411375
Ti       1.95535      9.48702      6.66717        -0.685856      0.208011      0.301717
Ti      13.41483      9.58262      6.72507        -0.570108      0.028413     -1.204110
Ti       1.93473      9.58667     11.03609         0.229071      0.308916     -1.488786
Ti      13.39340      9.58325     10.99044        -0.440776     -0.185613     -2.059570
Ti       5.73402      1.91825      2.27210        -0.711675      0.035706     -0.097788
Ti       5.69368      1.89741     15.43347         0.079631      0.427162      1.004041
Ti       5.68255     13.36631      2.25357        -0.606703      0.283972      0.605892
Ti       5.67805     13.37859     15.56590         1.067591     -0.840094     -2.824846
Ti       5.63398      1.84325      6.63293        -0.123948      0.214140     -0.239246
Ti       5.72180     13.42085      6.75517        -0.506453     -0.167015     -1.777318
Ti       5.65191      1.84305     11.08834         0.191390     -0.348982     -0.944566
Ti       5.67056     13.35123     11.02767         1.025179     -0.025549     -0.028530
Ti       5.67756      5.77568      2.21672         0.686470      0.421468     -0.702210
Ti       5.71364      5.80985     15.43017         0.293282     -0.896990     -0.428617
Ti       5.71367      5.71181      6.60065         0.070334      0.787750      0.080001
Ti       5.71234      5.75163     11.09422         0.091040     -0.728742     -2.261835
Ti       5.77155      9.57184      2.32608         0.513931     -0.671678     -1.125992
Ti       5.81364      9.54624     15.37728        -1.467334      0.959790     -0.415132
Ti       5.80481      9.61467      6.78394        -0.111037     -0.498660     -1.585834
Ti       5.77812      9.50540     10.97471        -1.790451      0.902696     -0.181527
Ti       9.47901      2.00298      2.45253         1.113568     -0.610469     -1.051749
Ti       9.51569      1.91684     15.26572         1.610267      0.269940     -0.456062
Ti       9.51860     13.50604      2.35358         0.596804      0.161915     -1.474196
Ti       9.61751     13.44784     15.42402        -0.091036     -1.238637     -0.294506
Ti       9.51091      1.87924      6.69883         0.862265     -0.371867     -0.916690
Ti       9.45257     13.39869      6.70061         1.076062      0.486471     -0.909897
Ti       9.50484      1.85629     11.10122        -0.248959     -1.072107     -0.354769
Ti       9.56668     13.34946     11.02674        -0.496130      1.173753      0.807135
Ti       9.57053      5.82621      2.34708        -0.422236     -0.473213     -0.834512
Ti       9.57801      5.82670     15.27453        -0.266380     -1.191653     -0.545971
Ti       9.53312      5.67677      6.75690         0.549836      0.595600     -0.200216
Ti       9.53489      5.70770     11.06257         0.027071      0.309517     -1.260417
Ti       9.69574      9.64245      2.34726        -0.704532     -0.317794     -1.368125
Ti       9.61472      9.59459     15.38185         0.214820      0.206484      0.246690
Ti       9.52720      9.59690      6.57340         1.140430     -1.037889      1.483949
Ti       9.52586      9.53712     11.10188         0.928309      0.363008     -2.616901
O       1.92385      1.85889      0.57387        -0.377090      0.337063     -1.091797
O       1.63462      1.86704     13.55949         0.825989      0.363713      1.976430
O       1.91571     13.38707      0.52922        -0.191207      0.162269      1.489904
O       1.84269     13.46446     13.62111         0.000132      0.165888      0.109288
O      13.37866      1.87030      0.56369        -0.065227      0.242106      0.232615
O      13.19224      1.86669     13.58158         0.406277      0.011533     -0.755426
O      13.39932     13.43638      0.56541        -0.034884     -0.186721      1.243109
O      13.44369     13.38901     13.55561        -0.096586     -0.225384      1.383659
O       1.67716      1.80630      4.70127         0.812003      0.200215      1.955841
O       1.89346     13.30641      4.75240         0.038424      0.107974      0.071554
O      13.43667      1.89553      4.90863        -0.023520     -0.223361     -0.616459
O      13.24462     13.49524      4.85332         0.327644     -0.366297      1.250452
O       1.91957      1.83083      9.30294        -0.318374      0.291473      0.370024
O       2.01650     13.43381      9.37755        -0.602364      0.024640     -0.225052
O      13.30986      1.81626      9.18738         0.219428      0.190805      1.844405
O      13.33804     13.17653      9.26743         0.205997      0.764446      1.182009
O       1.84224      5.75005      0.53715         0.135827     -0.105305      1.254041
O       1.89057      5.80835     13.64791         0.032614     -0.033135     -0.395699
O      13.23430      5.73992      0.45269         0.067427     -0.178390     -2.120741
O      13.41659      5.84533     13.52391        -0.080151      0.044192      1.306550
O       1.80339      5.65443      4.74880         0.481812      0.478010      0.657639
O      13.39415      5.69212      4.96160        -0.261210      0.261921      0.363695
O       1.93838      5.61094      9.15680        -0.107382      0.005150      1.821928
O      13.54129      5.58274      9.17143        -0.132969      0.366120      0.793230
O       1.85056      9.42821      0.54056         0.394268      0.924332      1.785407
O       1.93396      9.54739     13.55935        -0.245389     -0.005066      0.225543
O      13.43942      9.61582      0.59587         0.021873     -0.086167     -0.097716
O      13.42049      9.43797     13.56378         0.273901      0.245193      1.150226
O       1.98362      9.38012      4.88530        -0.105460      0.842362      0.523576
O      13.38925      9.29834      4.87279         0.123226      0.730843      1.603531
O       1.93137      9.60414      9.16487         0.197551     -0.024622      1.456929
O      13.41738      9.73396      9.17356         0.146857     -0.562644      1.042925
O       5.83410      1.83253      0.48973        -0.387750      0.122490      0.205854
O       5.65941      1.96478     13.69034         0.243028     -0.034843     -0.769373
O       5.50028     13.50582      0.47762         0.592579     -0.215226     -0.227372
O       5.78423     13.20389     13.64013        -0.106321      0.727509      1.689910
O       5.46146      1.87455      4.87094         0.936028     -0.160938      0.258416
O       5.59863     13.40117      4.88705         0.451475     -0.168957      1.053486
O       5.61441      1.75325      9.32097        -0.017278      0.291704     -0.136824
O       5.73958     13.39626      9.24178        -0.284615      0.076057      0.401888
O       5.80486      5.69015      0.41387        -0.264545      0.259416      0.373959
O       5.81733      5.70160     13.57480        -0.589694      0.123150      1.389545
O       5.77810      5.79304      4.79700        -0.080350     -0.071796      0.868684
O       5.66576      5.57959      9.19375        -0.036985      0.577096      1.631571
O       5.82415      9.49217      0.52390        -0.256300      0.403769      0.854021
O       5.75551      9.54383     13.58372        -0.144120     -0.080425      0.821877
O       5.73359      9.56795      4.84363         0.111862      0.175129      1.481813
O       5.78323      9.59504      9.16310         0.089712     -0.183633      0.564770
O       9.55071      2.09547      0.65105        -0.264799     -0.168560      0.086784
O       9.55482      1.77738     13.46362        -0.139062      0.174780      1.038781
O       9.56100     13.45031      0.50590        -0.257676     -0.004364      1.179364
O       9.52087     13.24396     13.57560         0.257605      0.767126      1.553777
O       9.50593      1.70688      4.91887        -0.346087      0.868668      0.954049
O       9.40023     13.43355      4.88793         0.143810     -0.262029      0.617748
O       9.58385      1.81653      9.32696        -0.208136      0.034825     -0.477324
O       9.57519     13.28119      9.28057        -0.215850      0.207584     -0.973942
O       9.56507      5.74750      0.51892         0.160610     -0.025513      1.322606
O       9.50346      5.97452     13.48270         0.217529     -0.421628     -0.133595
O       9.53715      5.55679      4.99241        -0.158176      0.393665     -0.172994
O       9.56425      5.78765      9.27957        -0.470272     -0.275986      0.362888
O       9.47636      9.66467      0.47637         0.708388     -0.385861      1.731828
O       9.65926      9.55197     13.59342        -0.322288     -0.197810     -0.122327
O       9.54393      9.57516      4.80328        -0.176385      0.199054     -0.142620
O       9.46188      9.69707      9.21027        -0.173322     -0.612404      2.055244
O       3.71556      1.96602      2.80188         0.856033     -0.582153     -0.823754
O       3.79388      2.02733     15.74048         0.039509     -0.266057      0.026594
O       3.72025     13.36955      2.74633         0.874836      0.093106     -0.275364
O       3.80375     13.37365     15.71528        -0.615213      0.305568      0.444150
O      15.26359      1.97317      2.66175        -0.360180      0.247444     -0.118374
O      15.27706      2.01737     15.78764        -0.067348     -0.643914      0.022673
O      15.24514     13.34207      2.89072         0.224928     -0.255851     -0.474482
O      15.34326     13.43386     15.89913         0.293256      0.221750     -0.467957
O       3.73625      1.85130      7.06725         0.538882     -0.253336     -0.224253
O       3.79916     13.44444      7.10226        -0.184819     -0.618414     -0.191437
O      15.34615      1.76027      7.02268         0.786006      0.234458      0.466125
O       0.00733     13.39506      6.99657        -0.383436     -0.057084      0.013968
O       3.82281      1.72254     11.57264        -1.096591      0.891652      0.056605
O       3.83129     13.38823     11.46309        -1.020781      0.364535      0.199211
O      15.22008      1.92754     11.37941         0.305035      0.182183      0.129240
O      15.23014     13.41146     11.45931         0.863427     -0.049787     -0.133657
O       3.84949      5.65617      2.57326        -1.353636      0.277655      0.462424
O       3.77896      5.83367     15.90999         0.710994     -0.702255     -0.860024
O      15.28206      5.67045      2.68618        -0.430999      0.371078     -0.383128
O      15.34078      5.64750     15.84007        -1.322236      0.550503     -0.362076
O       3.78175      5.70952      7.04283         0.429872      0.108243     -0.444264
O       0.03272      5.71656      6.97244        -0.851794     -0.067491      0.344327
O       3.76542      5.78123     11.48746         0.196900     -0.689926      0.205895
O       0.05533      5.67690     11.49070        -0.873849      0.862227     -0.749400
O       3.78306      9.57185      2.81860         0.839080      0.597154     -0.426036
O       3.82955      9.51462     15.85499        -0.056190      0.477216     -0.405985
O      15.22089      9.52058      2.80639         2.672439      0.108570      0.187027
O       0.02163      9.55109     15.90700        -0.635449      0.000741     -0.737506
O       3.90879      9.56612      7.11019        -1.226522      0.204040     -0.316168
O       0.03066      9.61455      7.09214        -0.455338     -0.515368     -0.274721
O       3.82742      9.73705     11.46872        -0.500661     -0.862746     -0.227979
O      15.33422      9.49559     11.33721        -0.074582      0.418429      0.209395
O       7.58568      1.90732      2.72809        -0.756223      0.149198      0.240596
O       7.76385      1.90527     15.71411        -1.211450     -0.093476      0.224372
O       7.55270     13.41890      2.64394         0.307257      0.137680      0.023449
O       7.64074     13.49599     15.84113         0.427918     -0.340921      0.038700
O       7.57733      1.81872      7.15807         0.560550      0.934385     -0.692960
O       7.58098     13.51630      7.06255         1.218578     -0.599964      0.265489
O       7.50818      1.91772     11.40694         1.080263      0.030793      0.411081
O       7.64103     13.41741     11.51342        -0.385258     -1.082523     -0.298494
O       7.53333      5.75900      2.54955         1.697145      0.117658      0.760187
O       7.72759      5.78521     15.76048        -1.065654     -0.252999     -0.035111
O       7.62239      5.57908      7.19643        -0.368233      0.696104     -0.712952
O       7.58163      5.67349     11.36719         0.513565      0.121602      0.290221
O       7.64358      9.51580      2.77266         0.260685      0.184880     -0.087589
O       7.62127      9.58568     15.73847         1.466159      0.005787     -0.066800
O       7.67998      9.56620      7.02949        -0.066817      0.128722     -0.047789
O       7.52543      9.60793     11.46896         2.150355     -0.358290     -0.097087
O      11.36130      1.85144      2.78116         1.177584      0.165235     -0.051160
O      11.47958      1.83763     15.93764        -0.644219      0.594097     -0.814728
O      11.40715     13.52751      2.73299         0.274913     -0.333229      0.077158
O      11.57033     13.40665     15.82145        -0.724197     -0.530371     -0.380479
O      11.53681      1.91876      6.96432        -0.976981     -0.592434      0.467183
O      11.41699     13.38738      7.11892         0.490513      0.197453     -0.260324
O      11.36895      1.67560     11.42081         1.151190      0.731746      0.180952
O      11.45900     13.47695     11.53013         0.536573     -0.387247     -0.183451
O      11.49066      5.65772      2.74966        -1.322458      0.453658     -0.265077
O      11.38380      5.83870     15.65158         1.834372      0.274831      0.344562
O      11.47888      5.78322      7.22467         0.454813     -0.335688     -0.692443
O      11.44738      5.76956     11.33234         0.771834      0.021028      0.217843
O      11.55291      9.55713      2.79582        -1.778261     -0.062070     -0.199997
O      11.55230      9.55696     15.76702        -0.297522      0.064714      0.006469
O      11.46287      9.45282      7.00781        -0.145589     -0.136711     -0.007104
O      11.46743      9.46375     11.26383        -0.160955      0.240572      0.584373
O       1.86856      3.84502      2.72496        -0.039788     -0.036533     -0.170317
O       1.77754      3.86460     15.77006         0.883642     -0.366004      0.200428
O       1.69280     15.35159      2.70638         0.477764     -0.654669     -0.314913
O       1.91168      0.05795     15.77026        -0.053370     -0.344150      0.067523
O      13.24878      3.79973      2.70911         0.570176      0.189383     -0.330795
O      13.21156      3.83252     15.58232         0.577161      0.594702      0.741451
O      13.50899     15.35411      2.82257        -0.823244      0.058105     -0.486039
O      13.31732      0.00864     15.70073         0.858449     -0.374318      0.068199
O       1.83928      3.71870      6.80004         0.033258      0.128870      0.626280
O       1.91903     15.22643      6.91640        -0.219880      0.946529      0.386593
O      13.38890      3.76999      6.99437         0.454011      0.524715      0.387749
O      13.47235     15.28815      7.11299        -0.466146     -0.170078     -0.075183
O       1.83592      3.80903     11.51423         0.707359      0.135406     -0.352442
O       1.77117      0.05246     11.43600        -0.055184     -1.264829      0.257111
O      13.34534      3.84780     11.39985        -0.279633     -0.436590      0.033289
O      13.41505     15.33810     11.42420        -0.198232     -0.717993      0.025739
O       1.89353      7.71523      2.75764        -0.045854     -1.474605     -0.058065
O       1.92072      7.73449     15.91817        -0.358421     -1.058939     -0.915705
O      13.29667      7.57379      2.76956         0.304532     -0.169981     -0.509819
O      13.41852      7.62376     15.78949         0.075972      0.427388     -0.049650
O       1.89771      7.57753      7.03872         0.230046      0.783153      0.035603
O      13.43193      7.61733      7.17931         0.240892      0.075525     -0.032433
O       2.03540      7.73149     11.35190        -0.547430     -0.811293      0.026988
O      13.41712      7.63680     11.28828         0.205377     -0.269411      0.148358
O       1.83934     11.46798      2.71813        -0.258139     -0.557992      0.081085
O       1.87582     11.46685     15.79174         0.201112      0.664635      0.141905
O      13.28252     11.44991      2.77905         0.364799      0.952900      0.176959
O      13.48955     11.47221     15.81051        -0.137743     -0.138870     -0.234697
O       1.81615     11.47404      7.04313         1.226161      0.135232     -0.492249
O      13.29673     11.44918      6.91465         0.569326      0.374781     -0.046155
O       1.80486     11.56217     11.44201        -0.021568     -0.483884      0.083394
O      13.39317     11.41982     11.55246        -0.699985      0.592835     -0.584945
O       5.68974      3.82858      2.62428         0.155437     -0.517011      0.087426
O       5.79183      3.84365     15.86253        -0.130456     -0.049402     -0.413297
O       5.67468     15.33781      2.74252        -0.204367      0.064746     -0.650115
O       5.68984     15.32244     15.74861        -0.156011      0.770027      0.117603
O       5.66145      3.83399      6.87020         0.126331     -1.054920      0.424706
O       5.76351     15.32841      7.08241        -0.663430      0.411426     -0.091521
O       5.62022      3.83891     11.39409        -0.245205     -0.748534      0.720198
O       5.71279     15.24634     11.57508         0.195658      0.405754      0.002686
O       5.53522      7.70560      2.61464         0.547810     -0.770632      0.272901
O       5.78373      7.68693     15.80607        -0.046643     -0.938357     -0.276838
O       5.75095      7.65841      7.08893         0.183461     -0.515536     -0.193681
O       5.58071      7.59813     11.42777         0.579056      1.026122     -0.287508
O       5.81582     11.49759      2.54173        -0.810033      0.111024      0.508140
O       5.70800     11.48977     15.81866         0.106934     -0.206826      0.383616
O       5.82731     11.52364      7.07328        -0.425218     -0.372452      0.025901
O       5.64407     11.41455     11.40832         0.737547      0.992760     -0.132903
O       9.50252      3.86964      2.85019        -0.089835      0.422979     -0.296979
O       9.72840      3.86590     15.49162        -0.671140     -0.949262      0.437315
O       9.43270      0.01479      2.70412        -0.260323     -0.419606     -0.069133
O       9.64738     15.25322     15.82384        -0.337196      1.311266     -0.475311
O       9.63931      3.83193      7.24744        -0.449507     -1.579834     -0.451526
O       9.58865     15.30191      7.10511        -0.218341      0.704513      0.177460
O       9.61328      3.74850     11.42237        -0.622357      0.727526      0.052178
O       9.40974     15.23614     11.40848         0.200565      0.789204      0.361963
O       9.59026      7.68297      2.77302        -0.038385     -0.577678     -0.311799
O       9.56169      7.66602     15.82553        -0.153990      1.056776     -0.282848
O       9.43258      7.58843      7.00517         0.149907      0.603524      0.245804
O       9.49015      7.63184     11.27882        -0.487773      0.779996      0.666927
O       9.55743     11.51169      2.67220        -0.066901      0.078866      0.385457
O       9.56827     11.46270     15.76615         0.062713      0.365598      0.008134
O       9.63664     11.43454      7.06541        -0.888079      0.773419     -0.439855
O       9.65849     11.50128     11.32926        -0.353367     -1.283622      0.759616
