  # total energy = -7878.73833186 
CRSYTAL
PRIMVEC
    15.6000000000000000    0.0000000000000000    0.0000000000000000
     0.0000000000000000   15.6000000000000000    0.0000000000000000
     0.0000000000000000    0.0000000000000000    17.640000000000000
PRESSURE
-5.73084 -5.33168 -7.60576 0.105214 -0.388795 0.022216
PRIMCOORD
320 1
Pb       3.93817      3.90057      4.29937        -0.006803      0.228830     -0.111048
Pb       3.85629      3.73507     17.57837        -0.362533      0.326856      0.279501
Pb       3.95173      0.04561      4.42935        -0.069107     -0.405786     -0.187305
Pb       3.98050     15.59994     17.54258        -0.702301     -0.115543      0.155423
Pb      15.56126      3.84152      4.31250        -0.280859      0.438918     -0.050836
Pb      15.56290      3.75739     17.53637        -0.126028      0.340587      0.058449
Pb       0.00954      0.03545      4.34385        -0.096926     -0.584772     -0.032661
Pb       0.10509     15.54746      0.02227         0.237143      0.161275     -0.529568
Pb       3.89736      3.83773      8.76389         0.076433      0.253073     -0.279609
Pb       3.86517      0.01343      8.78020         0.260514     -0.192480     -0.155589
Pb       0.05315      3.80889      8.77020        -0.540185      0.472623     -0.142196
Pb       0.03819      0.06868      8.89073        -0.339422     -0.570289     -0.614132
Pb       3.76779      4.03115     13.13301         0.314735     -0.053616     -0.114972
Pb       3.92891      0.08135     13.20584        -0.105528     -0.043403      0.073753
Pb      15.57787      3.84032     13.25781        -0.540879      0.557326     -0.284655
Pb      15.57361     15.58407     13.20263        -0.105081     -0.077027     -0.145851
Pb       3.86396      7.80623      4.21037         0.061146     -0.680629      0.283981
Pb       3.82244      7.80057     17.59276        -0.340702     -0.353678     -0.720110
Pb      15.53233      7.65723      4.41991        -0.304878     -0.274712     -0.268307
Pb      15.47718      7.77634     17.63350         0.432331     -0.128388     -0.462985
Pb       3.81237      7.76360      8.77422        -0.427026     -0.514804     -0.137506
Pb       0.05960      7.83693      8.65720        -0.011862     -0.206378      0.136028
Pb       3.87294      7.89549     13.18968        -0.193875     -0.267964      0.050282
Pb      15.48074      7.80703     13.18569         0.029172     -0.147260     -0.003402
Pb       3.90601     11.59416      4.31950        -0.054526      0.722118     -0.144155
Pb       3.87695     11.65389     17.54497        -0.186720     -0.142903      0.164611
Pb       0.04942     11.64970      4.44241        -0.555012      0.130853     -0.511087
Pb       0.02028     11.56802      0.07183        -0.078669      0.198054     -0.264037
Pb       3.89463     11.72715      8.71696         0.104130      0.313152      0.322589
Pb       0.03590     11.52592      8.77438        -0.557061      0.352370     -0.277508
Pb       3.95013     11.53260     13.22102        -0.716882      0.449464     -0.156279
Pb       0.09459     11.63486     13.26112         0.184207     -0.109356     -0.625158
Pb       7.78474      3.95636      4.30885         0.098365      0.100259     -0.319880
Pb       7.85820      3.83376     17.58195         0.081806     -0.087269     -0.302768
Pb       7.93772      0.00245      4.38645        -0.448251     -0.368031     -0.340210
Pb       7.81684     15.45744     17.61067         0.321680      0.358460     -0.209900
Pb       7.96760      3.89972      8.72831        -0.496369     -0.272081      0.086184
Pb       7.73607     15.59407      8.70964         0.102601     -0.002586     -0.056989
Pb       7.61318      3.80679     13.15746         0.462546      0.401715     -0.540460
Pb       7.75676     15.55065     13.15409        -0.387366     -0.266864     -0.009368
Pb       7.67669      7.78736      4.34255         0.536476     -0.353506     -0.302055
Pb       7.78977      7.75094     17.51535         0.605863      0.168883     -0.646374
Pb       7.85939      7.82535      8.77533         0.000717     -0.191457      0.040289
Pb       7.86784      7.67450     13.21706         0.111431     -0.143953      0.154066
Pb       7.70506     11.61859      4.32492         0.286768      0.432930     -0.176988
Pb       7.78130     11.69104     17.56705         0.213290     -0.193527     -0.533211
Pb       7.76305     11.61531      8.72993         0.090284      0.777379      0.068909
Pb       7.75411     11.54803     13.21820         0.434109      0.549698      0.171042
Pb      11.65602      3.87627      4.30231         0.351434     -0.157937      0.090606
Pb      11.60439      3.90001     17.53716         0.570384      0.077134     -0.524688
Pb      11.78878      0.05667      4.36102        -0.011791     -0.009422     -0.734859
Pb      11.83245      0.05098     17.54414        -0.589606     -0.287500      0.365151
Pb      11.71994      3.89454      8.78476         0.158762     -0.078202     -0.260260
Pb      11.55916     15.57296      8.81938         0.036845      0.125260     -0.414132
Pb      11.62383      3.83068     13.21569        -0.016992      0.938656     -0.131519
Pb      11.72533      0.07214     13.24463        -0.067068     -0.764331     -0.352166
Pb      11.63699      7.85542      4.40654         0.102932     -0.355406     -0.418846
Pb      11.82542      7.87059      0.00011        -0.770451     -0.117872     -0.421391
Pb      11.79953      7.78520      8.79223         0.030464     -0.060718     -0.186275
Pb      11.66557      7.86813     13.20482         0.035372     -0.149436     -0.153269
Pb      11.71030     11.70838      4.55780         0.372762      0.139941     -0.685424
Pb      11.57843     11.75862      0.12577         0.341477      0.617752     -0.660730
Pb      11.56181     11.75669      8.86425         0.302091      0.006371     -0.650136
Pb      11.78888     11.68006     13.33284        -0.470431     -0.074101     -0.711261
Ti       1.93252      1.91776      2.46027         0.259227     -0.088624     -2.615631
Ti       1.90030      1.90352     15.56350        -0.284468     -0.407419      0.103415
Ti       1.85899     13.63675      2.24191         0.324237     -0.424788      0.664552
Ti       1.94722     13.55687     15.62802        -0.355153      0.267061      0.747697
Ti      13.69936      1.92810      2.28266        -1.671908     -0.161530     -0.039744
Ti      13.61859      1.89141     15.57035        -0.141388      1.910077      0.444257
Ti      13.60140     13.56403      2.33677        -0.622930      0.196263     -0.910801
Ti      13.66110     13.72436     15.54518        -0.646715     -1.004579     -0.221187
Ti       1.85391      1.89337      6.77820         0.320124     -0.369972     -1.262959
Ti       1.88338     13.65346      6.75911        -0.627956      0.641631     -0.561802
Ti      13.56056      1.91202      6.73768        -0.351060      0.574935     -2.070913
Ti      13.60079     13.73320      6.84191         0.140107     -1.485654     -0.219697
Ti       1.87545      1.96516     11.20784         0.172342     -0.159976     -1.014832
Ti       1.86976     13.67669     11.23423         0.182078     -0.601247     -0.459923
Ti      13.60364      1.95801     11.26249         0.054719      1.055115     -1.184293
Ti      13.51982     13.69417     11.23081         0.247175     -0.257421      0.129012
Ti       2.00166      5.77593      2.29869        -0.491448     -0.034309     -0.667181
Ti       1.91892      5.76671     15.59975        -0.394801      0.836681     -1.107691
Ti      13.60559      5.77088      2.33825         0.374168      0.234341      0.239246
Ti      13.62260      5.90271     15.67442         0.089068     -0.820877     -1.648234
Ti       1.90080      5.75308      6.71815         0.086093      1.038683     -1.235901
Ti      13.62883      5.77758      6.80199         0.069327      0.331145      0.084872
Ti       1.89269      5.83765     11.19906        -0.714092      1.106183     -1.779031
Ti      13.62861      5.91807     11.11660        -0.463780     -0.688275     -0.495514
Ti       1.91206      9.67845      2.40258        -1.104153      0.377766     -1.949027
Ti       1.82502      9.72298     15.63824         0.212723     -0.849187     -1.478161
Ti      13.58096      9.70303      2.41567         0.382919     -0.043328      0.020936
Ti      13.55869      9.91506     15.71173         0.408599     -1.040874     -1.174149
Ti       2.01131      9.78423      6.63591        -1.442217     -1.082846      0.753477
Ti      13.55825      9.71487      6.87403         0.532755      0.969186     -1.182122
Ti       1.90323      9.71491     11.22486        -0.141097      0.034977      0.501132
Ti      13.63603      9.84033     11.12298         0.075927     -0.663481     -1.108238
Ti       5.82741      1.86325      2.39852         0.158775      0.458150     -1.542736
Ti       5.79543      1.99130     15.64701         0.251439     -1.791510     -1.658939
Ti       5.72911     13.58894      2.33969         0.282352      0.365238      0.519499
Ti       5.82758     13.59236     15.68496        -0.018476      0.548248     -2.205562
Ti       5.74873      2.01925      6.75940         0.843650     -0.882007     -0.843496
Ti       5.76914     13.64996      6.81303         0.368725      0.209407     -0.625729
Ti       5.80258      1.97889     11.15270        -0.154355     -0.161373     -0.449216
Ti       5.65228     13.61822     11.29920         0.757507      0.296460     -2.152574
Ti       5.87034      5.80978      2.20111        -0.222833     -0.703188     -0.800298
Ti       5.80769      5.82138     15.64186        -0.373863      0.690646     -1.275508
Ti       5.86862      5.90306      6.72689        -0.575618     -0.941602     -0.700162
Ti       5.81262      5.96857     11.07717         0.417501     -1.163613     -1.427091
Ti       5.81170      9.71326      2.29392         0.353505      0.267800     -0.546503
Ti       5.76891      9.72892     15.54487         0.999400     -0.745037     -0.509675
Ti       5.77694      9.67764      6.80253         0.581187      1.098563     -1.664769
Ti       5.87932      9.77293     11.18912        -1.034295      0.058109     -0.810264
Ti       9.70553      1.94669      2.39070         0.712020     -0.793198     -1.238139
Ti       9.69521      1.91320     15.56190         0.271531      0.677142      0.378108
Ti       9.63506     13.58989      2.37945         0.795791      0.083132     -0.737461
Ti       9.75953     13.70786     15.54333         0.477329     -1.112372     -0.414856
Ti       9.70925      1.94560      6.64352         0.148700      0.228022      0.610582
Ti       9.69274     13.66953      6.69250         0.021304     -0.189174     -0.377351
Ti       9.74600      1.84828     11.17921        -0.614047      0.714518     -1.622967
Ti       9.59397     13.65927     11.16249         0.725369     -0.632384     -0.159845
Ti       9.80591      5.80553      2.26533        -0.070909      1.136221     -1.012291
Ti       9.74438      5.84895     15.55607         0.731856      0.282268     -1.082281
Ti       9.70424      5.81502      6.78791         0.868007      0.128178     -2.266191
Ti       9.70518      5.82520     11.14257         0.466296     -0.823908     -0.323677
Ti       9.71955      9.66796      2.30419         0.067504      0.571971     -1.333643
Ti       9.74939      9.77108     15.62439        -0.497264     -0.784625     -1.431158
Ti       9.67271      9.71021      6.81183         0.810719      0.511459      0.205865
Ti       9.69196      9.78026     11.23407         1.404647      0.355755     -1.287860
O       1.88443      2.00701      0.59680         0.241362     -0.429731      1.607115
O       1.81753      1.91765     13.79020         0.262117      0.292766      0.175563
O       1.91585     13.56631      0.47443        -0.347999      0.176694      0.436449
O       1.93059     13.39336     13.89400        -0.161770      0.266263     -0.168695
O      13.59128      1.96428      0.47856         0.130185     -0.314639      1.003080
O      13.57904      1.94249     13.79381         0.141069     -0.079570      0.149984
O      13.44822     13.49333      0.51106         0.351490      0.393063      1.526683
O      13.65275     13.76000     13.74365        -0.126673     -0.445490      0.781032
O       1.91009      1.65065      4.95825        -0.136853      0.737510      0.612741
O       1.71013     13.85381      4.98032         0.430841     -0.549744      1.253316
O      13.46037      1.96069      4.82875         0.637775     -0.458821      2.083309
O      13.54880     13.51887      5.07302         0.155129      0.567972      0.230799
O       1.77668      2.05919      9.34085         0.170498     -0.271141      1.091437
O       1.95921     13.59898      9.47696        -0.002275      0.317924      0.112769
O      13.55408      2.04365      9.42685         0.267996     -0.476262      1.307641
O      13.46200     13.80985      9.48567         0.094171      0.013575     -0.243790
O       2.08172      5.78484      0.51291        -0.249918     -0.070349      0.756011
O       1.87674      5.79786     13.74361         0.305369     -0.448103      0.874011
O      13.70519      5.70072      0.60783        -0.465826      0.326983     -0.810717
O      13.78227      5.90984     13.89941        -0.086997      0.093108      0.361684
O       1.88272      5.80318      4.89034        -0.080789      0.091802      1.093067
O      13.68788      5.94454      5.04937        -0.093522      0.021357     -0.606854
O       1.82142      5.98887      9.31591         0.498682     -0.536059      1.664773
O      13.58331      5.80282      9.31870        -0.022119      0.194040      0.587817
O       1.84030      9.63728      0.53564         0.175387      0.230534      1.590320
O       1.79222      9.84192     13.79154         0.168704      0.037361      0.974552
O      13.68616      9.72532      0.61785        -0.395207      0.298450      0.311375
O      13.51736      9.78107     13.91847         0.245876      0.444786      0.170875
O       2.04185      9.82959      4.86250        -0.109479     -0.242710      0.288410
O      13.56826      9.73823      5.03704        -0.109559     -0.141631      0.501113
O       1.77205      9.58612      9.48579         0.694141      0.285278     -0.635414
O      13.75762      9.77066      9.27909        -0.562775     -0.216381      1.361958
O       5.70835      2.00589      0.57679         0.329915     -0.459493      0.475035
O       5.74329      1.80479     13.82936         0.182832      0.548017      0.687014
O       5.78418     13.46468      0.58906         0.269199      0.243363     -0.905535
O       5.84263     13.70964     13.87066        -0.182683     -0.339320      1.028232
O       5.77899      1.89792      4.93975        -0.146119      0.390689      0.790567
O       5.73242     13.63483      5.06425         0.195579      0.176013     -0.181442
O       5.72713      1.84157      9.38348         0.002441      0.233848      0.256965
O       5.76161     13.62470      9.42946        -0.465169     -0.050019      1.416928
O       5.76226      5.73834      0.38530         0.304129      0.233703      1.140872
O       5.74651      5.86485     13.83120         0.203900     -0.378259      0.582365
O       5.81608      5.91456      4.86737         0.329814     -0.204074      1.441814
O       5.89815      6.00113      9.22203        -0.219879     -0.170193      1.600186
O       5.82297      9.83642      0.53067         0.006067     -0.271150      0.505212
O       5.91376      9.68988     13.74601        -0.413093      0.208471      0.118884
O       5.63367      9.75037      4.96159         0.504330     -0.351997      1.075897
O       5.78726      9.85756      9.41598         0.290279     -0.351646     -0.119170
O       9.59215      1.88453      0.60263         0.231273      0.336314      0.059353
O       9.75538      1.93268     13.82993        -0.211638     -0.243800     -0.737651
O       9.64994     13.54419      0.52014        -0.274450      0.048078      0.819621
O       9.68175     13.73453     13.78706         0.180703      0.065388      0.069514
O       9.70441      2.00851      4.86833         0.006704      0.064964     -0.344854
O       9.57641     13.67470      4.87825         0.183655     -0.281506      1.005073
O       9.77627      1.75175      9.34422        -0.086933      0.745168      1.329786
O       9.59614     13.77814      9.37196         0.566087     -0.283962      0.404816
O       9.79245      5.84482      0.42761        -0.104658     -0.083838      1.208226
O       9.80339      5.79250     13.75715        -0.582900      0.259751     -0.014469
O       9.73477      5.82507      4.88799        -0.278040     -0.011517      1.857364
O       9.57857      5.71238      9.27839         0.244326      0.651451      1.218117
O       9.75546      9.57804      0.44959        -0.270286      0.652374      1.111439
O       9.71978      9.76026     13.78552         0.164965     -0.167635     -0.013646
O       9.57430      9.84274      5.08592         0.371491     -0.346899     -0.546871
O       9.82396      9.72292      9.39940        -0.559042     -0.204705      0.834798
O       3.90658      1.99592      2.78139        -0.203051     -0.733554      0.231843
O       3.76534      1.82685     16.01529         0.952743      0.501274     -0.033515
O       3.77469     13.61517      2.70834         0.400217      0.214636      0.116054
O       3.84205     13.51654     16.08558         0.492805      0.215174     -0.323677
O      15.52839      2.02773      2.67608         0.720891     -0.390434      0.347688
O      15.55492      1.81743     16.13365        -0.020747      0.134254     -0.755862
O      15.51162     13.63618      2.63922        -0.207934     -0.099777      0.038773
O      15.47822     13.68476     15.95459         1.060516     -0.214997      0.274393
O       3.83026      1.93412      7.12989        -0.072001      0.109044      0.297771
O       3.84106     13.62988      7.08414        -0.692934      0.193376      0.543588
O      15.55061      1.91684      7.09442         0.069750      0.187327      0.291874
O      15.55240     13.70238      7.25630         0.300890     -0.174594      0.013726
O       3.79269      2.02127     11.48595         0.217189      0.205584      0.393861
O       3.77784     13.66191     11.67418         0.800518     -0.280950      0.136600
O      15.52858      1.96597     11.68973         0.099275     -0.264113     -0.399409
O       0.01077     13.82189     11.56289        -0.238103     -0.647469      0.233883
O       3.85483      5.72035      2.73033         0.999765      0.314359     -0.097132
O       3.82481      5.82332     15.93882         0.282692     -0.208327      0.227466
O      15.51187      5.91135      2.75854         0.900783     -0.522624      0.211627
O       0.08001      5.83307     16.08618        -0.824648     -0.089584      0.131935
O       3.81700      5.89034      7.12216         0.602698     -0.071029      0.116748
O      15.50819      5.79713      7.13593         1.254050      0.048565      0.009237
O       3.88621      5.71572     11.40539        -0.002242      0.410618      0.328091
O      15.50358      5.92834     11.47923         0.761652      0.211663      0.356461
O       3.78100      9.78245      2.72282         1.098577      0.040807     -0.097692
O       3.86505      9.78293     15.81371        -0.240672     -0.437293      0.485803
O      15.55936      9.76206      2.81415         0.123865     -0.373981      0.077566
O      15.55806      9.73582     16.04960        -0.565213      0.333632      0.194886
O       3.97745      9.65159      7.27611        -1.272034      0.375902     -0.371575
O       0.05118      9.79477      7.15186         0.506872     -0.043752     -0.404479
O       3.90284      9.78039     11.58612         0.167823     -0.582116      0.331405
O      15.59735      9.70223     11.57370        -0.970345      0.201807      0.308883
O       7.81257      1.99852      2.71999        -0.684757      0.125556      0.460711
O       7.73172      1.91787     15.97278         0.093265      0.019870      0.163071
O       7.60805     13.62120      2.79121         0.954355     -0.041142     -0.022060
O       7.83019     13.63455     15.92461        -1.225306     -0.173034      0.794826
O       7.79980      1.94854      7.00679        -0.790060      0.214445      0.346485
O       7.83826     13.64665      7.22954        -0.696836      0.145452     -0.340653
O       7.71679      1.87033     11.52843         0.382149     -0.025938      0.330113
O       7.78380     13.63575     11.58842        -0.884483      0.356240      0.317355
O       7.84990      5.85685      2.57878        -1.070941      0.251911      0.268244
O       7.83405      5.87448     15.89508        -1.632590     -0.415842      0.461170
O       7.80046      5.62490      7.06297        -0.894894      0.631563     -0.057582
O       7.75230      5.90793     11.58157         0.024999     -0.481387     -0.076336
O       7.73339      9.54704      2.75635        -0.373371      0.866024     -0.112963
O       7.77869      9.70761     15.84474        -0.415421     -0.126120      0.929794
O       7.78828      9.74737      7.18387        -0.988547      0.183165      0.335045
O       7.73922      9.89561     11.47939         0.592507     -0.877718      0.304926
O      11.67249      1.92880      2.71466        -0.446542     -0.046180     -0.038809
O      11.69603      2.09593     16.00183        -0.644161     -1.326583     -0.132370
O      11.54544     13.63413      2.66554         0.443111     -0.319650      0.429117
O      11.70364     13.59623     15.95383        -0.667681      0.325303      0.082416
O      11.69407      1.95349      7.04427        -0.441827     -0.121951      0.377345
O      11.65816     13.57513      7.10546        -0.388482      0.772043      0.412127
O      11.61223      2.04031     11.62780         0.553177     -0.923094     -0.021962
O      11.67170     13.65757     11.67745        -0.271503      0.000630     -0.112613
O      11.72373      5.82143      2.77707        -0.491112      0.304125     -0.116096
O      11.69056      5.81380     15.79919         0.360955      0.050183      1.032623
O      11.67974      5.85862      7.17652        -0.660727      0.185771      0.165497
O      11.72219      5.86398     11.47238        -1.008162     -0.024863      0.075375
O      11.60413      9.70992      2.81231         0.496031      0.595034     -0.040539
O      11.70473      9.70161     16.06593        -0.502306      0.265232      0.274461
O      11.66902      9.63102      7.16170        -0.646525      0.061751      0.168568
O      11.66140      9.81314     11.65622        -0.005385      0.148019     -0.213640
O       2.00495      3.80063      2.78933        -0.750630      0.840989      0.303891
O       1.83321      3.78480     15.92342         0.366857      0.486791     -0.014719
O       1.76597     15.59880      2.67936         0.378574     -0.160619     -0.041638
O       1.95103     15.51661     16.00007        -0.325260     -0.241293      0.057332
O      13.59151      3.82778      2.80966         0.232576      0.580527     -0.262894
O      13.58181      3.89963     15.97594         0.854953     -0.285995      0.211836
O      13.56606     15.53795      2.74151         0.154897      0.316075     -0.267620
O      13.54906      0.03766     15.92579        -0.110071     -0.573870      0.194100
O       1.88795      3.88504      7.00799         0.070889     -0.410137      0.488325
O       1.87992      0.03090      7.25967         0.199600     -0.528432      0.241432
O      13.57266      3.84396      7.03895         0.163607      0.210894      0.505595
O      13.59407      0.03775      7.19166         0.015447     -0.332929     -0.084062
O       1.79406      3.94726     11.54474         0.203331     -0.175131      0.258767
O       1.93671      0.09680     11.58518        -0.121904     -0.413959     -0.145672
O      13.63070      3.91369     11.58892         0.049860     -0.198160      0.229621
O      13.62016      0.00691     11.75754        -0.293999      0.935289     -0.551585
O       2.08855      7.69350      2.57280        -0.616724      0.889498      0.611739
O       1.82304      7.79989     15.82066         0.738431     -0.151785      0.717931
O      13.54977      7.80019      2.60020         0.100885     -0.013435      0.743094
O      13.60194      7.82157     16.02682         0.454432     -0.296237      0.684002
O       1.90993      7.84789      6.97002         0.116458      0.143458      0.321699
O      13.68845      7.81405      7.22188        -0.372774     -0.384908      0.069268
O       1.98928      7.76927     11.71170         0.066842     -0.365185     -0.208441
O      13.48613      7.92746     11.60375         0.701281     -0.808827     -0.280576
O       1.78503     11.73781      2.77685         0.478637     -0.481438     -0.246768
O       1.89857     11.59010     16.15929        -0.373107      0.961823     -0.336922
O      13.49739     11.68660      2.86266         0.332368     -0.079618     -0.174511
O      13.55685     11.73932     16.02105         0.313651      0.076527     -0.140089
O       1.92377     11.69204      7.12406         0.447614     -0.054762     -0.221381
O      13.57431     11.64629      7.23774         0.106580      0.436171      0.267805
O       1.97447     11.60910     11.58854        -0.587095      1.017839      0.194667
O      13.66685     11.70747     11.40387        -0.000106      0.250281      0.727557
O       5.84285      3.89611      2.60356         0.195075      0.526325      0.709845
O       5.72382      3.79494     15.86346         0.236521      1.157222      0.379717
O       5.86219     15.56750      2.68396        -0.513057      0.440234      0.064968
O       5.72036     15.54586     16.00250         0.455826     -0.384264      0.518408
O       5.71338      3.88201      7.20650         0.203561      0.186995     -0.358644
O       5.72563     15.59190      7.16350         0.250231      0.407962      0.223987
O       5.90192      3.88180     11.43508        -0.228807      0.103333      0.411643
O       5.66234     15.53799     11.64651         0.598020      0.481454     -0.079344
O       5.76181      7.78380      2.50605        -0.410960     -0.465995      0.511363
O       5.73823      7.75757     15.92185         0.217945      0.065138      0.558947
O       5.92519      7.75393      7.03348         0.150295      0.370490      0.285022
O       5.85384      7.78183     11.48431        -0.326647      0.494156      0.208633
O       5.82855     11.67583      2.79485        -0.390007     -0.821113     -0.067842
O       5.76275     11.60262     15.94684         0.586411      1.096005      0.196961
O       5.77617     11.73143      7.08845         0.216977     -1.092651      0.626737
O       5.80062     11.69714     11.62605        -0.147294      0.247393      0.292365
O       9.80839      3.99358      2.59041        -0.412244     -1.333504      0.417793
O       9.73168      3.88879     15.79639        -0.432680     -0.802428      1.202879
O       9.66476     15.54394      2.70279        -0.393764      0.676761      0.297723
O       9.71187     15.57319     15.93011         0.177919      0.698733      0.476664
O       9.75402      3.86848      7.17220         0.192668      0.027650     -0.057349
O       9.71705      0.08126      7.00840         0.139106     -1.165867      0.171981
O       9.74020      3.88588     11.53693        -0.572176      0.203929      0.007590
O       9.73637     15.57819     11.40161         0.102630      0.447484      1.086890
O       9.82827      7.87347      2.63868        -0.396182     -1.642466      0.734404
O       9.74496      7.75506     15.82580        -0.126337      0.322901      0.633210
O       9.58004      7.76846      7.03967         0.158947     -0.436185      0.536552
O       9.70013      7.74996     11.60160        -0.118549      0.412235     -0.261111
O       9.60846     11.65965      2.66980        -0.296007     -0.311619      0.192993
O       9.69259     11.62824     15.70490         0.248655      0.946057      1.273285
O       9.78980     11.75774      7.22803        -0.395132     -0.668161     -0.153442
O       9.69178     11.68740     11.44145         0.064504      0.179870      0.380254
