  # total energy = -7879.25974777 
CRSYTAL
PRIMVEC
    15.2000000000000000    0.0000000000000000    0.0000000000000000
     0.0000000000000000   15.2000000000000000    0.0000000000000000
     0.0000000000000000    0.0000000000000000    17.000000000000000
PRESSURE
7.71396 7.92622 3.06401 0.059337 0.141346 0.05933
PRIMCOORD
320 1
Pb       3.79703      3.66141      4.12537         0.481015      0.393059      0.150399
Pb       3.86951      3.77716     16.90423        -0.365308     -0.216723      0.142877
Pb       3.72092      0.00488      4.20745         0.434296      0.114134     -0.205672
Pb       3.67843     15.18738     16.93881         0.290442      0.001873      0.083156
Pb       0.03021      3.70447      4.20232        -0.277586      0.251084      0.497410
Pb      15.17601      3.71906      0.08377        -0.325401      0.390533     -0.641247
Pb      15.17716      0.00180      4.32690         0.003011      0.049156     -0.705265
Pb      15.03460     15.17745      0.07202         0.731927     -0.296100     -0.178501
Pb       3.89731      3.86113      8.55523        -0.690327     -0.921260     -0.193259
Pb       3.78656     15.04824      8.68224         0.151063      0.602841     -0.358773
Pb       0.16007      3.77901      8.52378        -0.645238      0.114064     -0.494892
Pb      15.14128     15.06092      8.40234         0.560809      0.520301      0.299735
Pb       3.71767      3.82374     12.69487        -0.175379      0.126071     -0.054580
Pb       3.59341      0.09169     12.80356         0.782855      0.000970     -0.118666
Pb      15.09237      3.91640     12.66851         0.272976      0.140927      0.575094
Pb      15.17745      0.16874     12.83184        -0.412830     -0.254447     -0.364396
Pb       3.79331      7.47781      4.17610         0.713246     -0.294787     -0.091126
Pb       3.77555      7.52625     16.87506        -0.137080      0.813996      0.847471
Pb       0.00985      7.64485      4.21940        -0.496226     -0.797496      0.248062
Pb      15.01437      7.55879     16.95566         0.333953     -0.275300     -0.340970
Pb       3.86726      7.69137      8.45583        -0.561208     -0.602029     -0.033565
Pb       0.10858      7.56153      8.39809        -0.591154     -0.015933      0.135178
Pb       3.74277      7.60362     12.69976        -0.412752     -0.120861      0.071109
Pb       0.03691      7.63805     12.64233        -0.435459     -0.025202      0.395248
Pb       3.74473     11.19195      4.21406         0.679782      0.418201     -0.497201
Pb       3.81305     11.32553      0.20709         0.019820      0.178190     -0.658055
Pb       0.10872     11.34976      4.16607        -0.757127     -0.227199      0.398282
Pb      15.15983     11.37675      0.10013        -0.133593      0.324287     -0.870870
Pb       3.85872     11.34479      8.57169        -0.322800      0.555215     -0.332881
Pb       0.05477     11.44238      8.36671         0.078488     -0.625744      0.394826
Pb       3.65594     11.37967     12.85382         0.704103     -0.040208     -0.378965
Pb       0.01650     11.35451     12.89733        -0.835945     -0.150607     -0.468099
Pb       7.50595      3.66006      4.27628        -0.236610      0.617029     -0.032909
Pb       7.54158      3.70616     16.84515         0.166892      0.429871      0.709062
Pb       7.60174     15.07321      4.25491        -0.128808      0.190156      0.091203
Pb       7.64138     15.15887     16.92764        -0.484873     -0.167022      0.041944
Pb       7.50469      3.76875      8.67471         0.178867     -0.324371     -0.620347
Pb       7.66319     15.17426      8.46943        -0.564235      0.231697      0.724177
Pb       7.63412      3.92569     12.80883        -0.217818     -0.322224     -0.864911
Pb       7.56895     15.14760     12.78249        -0.065210     -0.323908     -0.767041
Pb       7.70215      7.47414      4.18018        -0.403414      0.187412      0.409150
Pb       7.59976      7.71693     16.92536         0.292588     -0.584195      0.233669
Pb       7.54140      7.60294      8.50279         0.058051      0.325453     -0.610190
Pb       7.51224      7.66128     12.69904         0.011850      0.173346      0.251403
Pb       7.58882     11.28615      4.37245        -0.213174     -0.166684     -0.421794
Pb       7.65113     11.40325     16.87987        -0.268113      0.287109      0.218649
Pb       7.66724     11.41074      8.63291        -0.264977     -0.083464     -0.663132
Pb       7.56533     11.38043     12.72856         0.117615      0.222352      0.223422
Pb      11.24665      3.73572      4.36871        -0.122353      0.582077     -0.357148
Pb      11.27708      3.63254      0.00616         0.126772      0.664516      0.447618
Pb      11.34949     15.14111      4.25827        -0.141985     -0.172074     -0.236610
Pb      11.37644      0.02993      0.05251         0.014586     -0.517096     -0.045301
Pb      11.43373      3.88460      8.52996        -0.228140     -0.706080     -0.480432
Pb      11.45885      0.02951      8.24096        -0.001402      0.092882      1.110144
Pb      11.32616      3.83982     12.74846         0.183857     -0.079735     -0.416979
Pb      11.46001      0.00123     12.58947         0.178633      0.095980      0.080591
Pb      11.32748      7.61333      4.26330        -0.062671     -0.409091     -0.267719
Pb      11.32599      7.55974     16.94040         0.177836     -0.064649      0.062871
Pb      11.32655      7.53729      8.55621         0.665278      0.353454     -0.239240
Pb      11.43513      7.65522     12.74633         0.216316      0.105349     -0.116338
Pb      11.26386     11.22527      4.28357         0.580736      0.274384      0.141091
Pb      11.34899     11.54501     16.94019         0.454432     -0.493818     -0.174085
Pb      11.49192     11.40146      8.41816         0.305078     -0.204039      0.040852
Pb      11.40438     11.58326     12.55139         0.499782     -0.852400      0.281310
Ti       1.86960      1.87632      2.10067         0.144265     -0.579658      0.174758
Ti       1.83224      1.91440     15.00977         0.077061      0.013313     -0.002037
Ti       1.87180     13.22356      2.33330         0.613456      0.813028     -1.764584
Ti       1.91234     13.21977     15.02668        -0.722162      1.096065      1.444260
Ti      13.22258      1.82285      2.31325        -0.148080     -0.233019     -0.250500
Ti      13.19547      1.89476     15.00672         1.015706     -0.434434     -1.037794
Ti      13.32123     13.17189      2.36137        -0.649488      0.539233      0.665458
Ti      13.35085     13.31459     14.96786         0.175162     -1.142442     -0.899054
Ti       1.87853      1.84450      6.57076         0.830166      0.341062     -0.319996
Ti       1.99680     13.27557      6.43423        -0.207460     -1.246951      0.497599
Ti      13.29004      1.88937      6.38365         0.346598      1.450192      0.696886
Ti      13.40026     13.23520      6.39670        -0.861816     -0.565419     -0.168827
Ti       1.86048      1.92424     10.75240        -0.027500      0.180752     -0.536932
Ti       1.88331     13.24887     10.86069        -0.341296      0.395393     -1.833159
Ti      13.23074      1.99936     10.64165        -0.332887     -0.876923      0.690154
Ti      13.42532     13.30267     10.66073        -0.749789      0.073676      0.383648
Ti       1.82038      5.65750      2.17265         0.601757      0.136358      0.220076
Ti       1.80383      5.74194     15.02273        -0.472985     -1.131988     -1.141442
Ti      13.23685      5.60523      2.34074        -0.943282      0.866728     -0.985775
Ti      13.16728      5.64745     15.04968         1.154691      0.137036     -1.144912
Ti       1.89196      5.61108      6.43997        -0.329207      0.137579      1.324991
Ti      13.18934      5.69852      6.50506         1.391329     -0.835049     -0.942214
Ti       1.86771      5.74165     10.68941        -0.313935     -0.536971      0.574466
Ti      13.20741      5.74071     10.68097         0.361153      0.202306      1.353952
Ti       1.88407      9.33925      2.13586         1.208644      0.300979     -0.279441
Ti       1.88455      9.48823     15.01200        -0.795325     -0.622992      0.745657
Ti      13.33937      9.38559      2.14139        -1.436837      0.421563      1.061025
Ti      13.25219      9.46482     14.94694        -0.241271      1.141973     -0.636857
Ti       1.92059      9.41787      6.45874        -0.513638      0.494953      0.822158
Ti      13.33418      9.43834      6.43156        -0.223266     -0.230824      1.195337
Ti       1.83527      9.55365     10.64298        -0.434905     -1.004842      0.732405
Ti      13.28406      9.48336     10.63054         0.287600      0.401591     -1.063216
Ti       5.72662      1.82915      2.12918        -0.959202      1.031922      0.514572
Ti       5.70525      1.93668     14.83028        -0.606516     -1.122555      1.220774
Ti       5.67267     13.31964      2.19271         0.074010     -0.380708      0.573322
Ti       5.72357     13.30680     15.06100        -0.616863      0.382975     -0.989070
Ti       5.63240      1.87342      6.57395        -0.540675     -0.053986     -0.972992
Ti       5.66723     13.34121      6.52150         0.589310     -0.184405      0.032538
Ti       5.72097      1.91413     10.85139        -0.409158     -0.345843     -0.204551
Ti       5.66821     13.28279     10.87279         0.501109      0.257754     -0.536119
Ti       5.71582      5.67283      2.14527         0.137851     -0.507455      2.455049
Ti       5.62735      5.72656     14.96190         0.417714      0.330360     -0.573392
Ti       5.62215      5.68760      6.46526         0.542149     -0.156401     -1.492653
Ti       5.62189      5.74745     10.65480         0.021939     -1.302112      1.699992
Ti       5.80718      9.49831      2.20265        -0.464244     -0.293093     -0.335453
Ti       5.71533      9.50495     14.99186        -0.411356      0.951303      0.040523
Ti       5.62750      9.56389      6.54005         1.612435     -0.566298     -0.430001
Ti       5.61722      9.50926     10.77983         0.078946      0.509378      0.013394
Ti       9.35129      1.87741      2.22611         1.331350     -0.012361      1.416958
Ti       9.45183      1.83609     14.86961         0.458704      0.105430     -0.114439
Ti       9.49312     13.21725      2.34157         0.238960      0.726280     -0.964073
Ti       9.55016     13.29954     14.84879         0.134746     -0.340833     -0.405243
Ti       9.40749      1.88729      6.57573         0.572727      0.945840      0.305772
Ti       9.52243     13.24979      6.55638         0.151416     -0.565551     -1.279952
Ti       9.47011      1.88861     10.76481         0.176056      0.263388     -0.785696
Ti       9.55485     13.32769     10.64756        -0.299362      0.604770      1.165118
Ti       9.43316      5.63908      2.16914         0.617604     -0.199474      0.847448
Ti       9.42498      5.66982     14.95724         0.484266     -0.015393      0.818310
Ti       9.36280      5.67982      6.57525         0.648826     -0.991077     -1.709927
Ti       9.39696      5.79956     10.70855         0.696614     -1.389324     -0.017034
Ti       9.51959      9.49337      2.09183         0.472124     -0.662948      0.711298
Ti       9.52585      9.53384     14.93770         0.345844     -0.662110     -0.898477
Ti       9.51193      9.39430      6.59341        -0.462659      0.880115     -0.146743
Ti       9.48058      9.49440     10.75185        -0.137429      0.503556      0.065581
O       1.88138      2.03597      0.29662         0.054428     -0.475622      0.674181
O       1.87076      1.83678     13.20685        -0.244113      0.090537     -0.207034
O       1.87628     13.29271      0.49749         0.045776     -0.571854      0.824643
O       1.73211     13.16077     13.27408         0.803514      0.224964     -1.262870
O      13.25125      1.73360      0.46933        -0.136737      0.396553      0.077909
O      13.20300      1.84267     13.19901         0.215567      0.163857      0.513932
O      13.40763     13.44783      0.62358        -0.400784     -0.640642     -1.602194
O      13.36155     13.17848     13.16443        -0.133554      0.390975      0.292461
O       1.86177      1.96176      4.75404         0.091241     -0.488735     -0.088268
O       1.97343     13.31226      4.66206        -0.250066     -0.457388     -0.983210
O      13.45580      1.89036      4.60530        -0.354027      0.118774     -0.471111
O      13.44186     13.13978      4.63105        -0.166439      0.070162     -0.166601
O       1.89879      1.91104      8.95461        -0.345048     -0.245535      0.602842
O       1.94673     13.30411      8.97491        -0.242151     -0.130731      1.484751
O      13.17121      1.97197      8.88690         0.300594     -0.063186     -0.278557
O      13.52361     13.30565      8.88551        -0.447165     -0.039960     -0.704587
O       1.72772      5.74656      0.40323         0.635217     -0.294877     -0.066351
O       1.83449      5.80074     13.20696         0.220528     -0.029067     -0.143600
O      13.25096      5.67251      0.48793        -0.197050      0.078261      0.238195
O      13.24892      5.61500     13.23135        -0.398846      0.371593      0.508293
O       1.98292      5.64298      4.70051        -0.212863      0.055513     -1.094666
O      13.34323      5.67187      4.72026        -0.459897      0.065640     -0.513675
O       1.90822      5.68317      8.93872        -0.099958     -0.152972     -0.199867
O      13.18193      5.63000      8.97099         0.047944      0.270184     -2.129614
O       1.89059      9.37045      0.37484        -0.108068      0.091185     -0.591195
O       1.84703      9.48017     13.24192         0.355893      0.043570     -0.402617
O      13.20465      9.44848      0.39747         0.294392     -0.280878     -0.546197
O      13.23768      9.46438     13.13979        -0.310012      0.161391      0.027514
O       1.79849      9.28760      4.69580         0.688878      0.581388     -0.962438
O      13.39963      9.47411      4.66735         0.182984     -0.059383     -0.512536
O       1.85873      9.51451      8.90225         0.081394     -0.016583     -0.734636
O      13.26524      9.37270      8.77332         0.085379      0.451906      1.757853
O       5.72743      1.89900      0.38711         0.167246      0.258334     -1.154406
O       5.65107      1.96798     13.08010         0.240021     -0.435619     -0.159431
O       5.64078     13.33193      0.43165         0.282301     -0.530193     -0.720765
O       5.66098     13.30193     13.26041         0.220408      0.000723     -0.204212
O       5.65017      1.76056      4.74797        -0.056624      0.174765      0.466947
O       5.68246     13.44851      4.74958         0.060499     -0.230588      0.009143
O       5.73929      1.93484      9.07996        -0.044844      0.051527     -0.985236
O       5.66832     13.09392      9.06417        -0.230505      0.586253      0.329349
O       5.65323      5.55747      0.43415         0.170625      0.379217     -2.079451
O       5.57430      5.78490     13.16008         0.316505      0.088680      0.691634
O       5.68701      5.63693      4.63941        -0.154708      0.004984      1.232498
O       5.57637      5.53627      8.92085         0.673354      0.812420     -1.032028
O       5.88896      9.59740      0.38233        -0.166911     -0.285763      0.606430
O       5.75370      9.43388     13.20622        -0.580825     -0.119075     -0.272454
O       5.68962      9.56389      4.78096        -0.122910      0.190783     -1.067567
O       5.64107      9.48249      8.98922         0.176692      0.334317     -0.450413
O       9.43920      1.83459      0.50103        -0.195790     -0.434685     -1.653940
O       9.54655      2.00981     13.10095        -0.623033     -0.358964      0.396723
O       9.57414     13.26036      0.51373        -0.161598      0.118288      0.214581
O       9.53623     13.22421     13.04289         0.147506      0.431450      0.686706
O       9.52028      2.02567      4.82521        -0.548720     -0.534709     -1.148784
O       9.63101     13.23982      4.68820        -0.675007     -0.191395      0.839226
O       9.51278      1.75641      8.95754        -0.185933      0.417921     -0.494731
O       9.47014     13.41746      8.91785         0.211870     -0.160908     -1.811695
O       9.53635      5.56979      0.42115        -0.211420      0.406507     -1.097032
O       9.46074      5.54143     13.19405        -0.234039      0.231872     -0.720866
O       9.48347      5.69069      4.71360        -0.274495     -0.272976      0.979609
O       9.41905      5.89319      8.92755        -0.266197     -0.299366     -0.594156
O       9.47568      9.48409      0.28260        -0.063514      0.138078      0.591108
O       9.51176      9.61358     13.12917        -0.077423     -0.580909     -0.215995
O       9.47103      9.38830      4.82284         0.187659      0.763601     -0.967445
O       9.35174      9.36402      8.96925         0.259517     -0.136129     -0.518395
O       3.79132      1.90484      2.49474        -1.155452      0.281900      0.028666
O       3.89061      1.75135     15.27999        -1.079116      0.523264     -0.025715
O       3.83337     13.13386      2.67071        -0.858991      0.048924     -0.141832
O       3.76946     13.38366     15.45502         0.176986     -0.476158     -0.602393
O      15.15310      1.79092      2.47174         1.049840      0.179158      0.156566
O      15.16631      2.02090     15.27627        -0.403483     -0.108264      0.226750
O      15.19112     13.33378      2.62862         1.347981     -0.544800      0.448146
O       0.00299     13.22233     15.37150         0.028688     -0.253962      0.506750
O       3.76081      1.79745      6.99775        -0.063052      0.204240     -0.247421
O       3.85024     13.23619      6.86147        -0.545979      0.320991      0.356194
O       0.02565      1.97361      6.87222        -0.512491     -0.610889      0.054345
O       0.03686     13.21054      6.80698         0.389915      0.231188     -0.129100
O       3.70318      1.90895     11.16149        -0.040730     -0.610880      0.010492
O       3.76900     13.35903     11.24258        -0.354443     -0.443907     -0.053967
O      15.06576      2.16378     11.10088         0.672969     -0.939636     -0.324228
O       0.00015     13.16533     11.10400         1.064491      0.171014      0.279409
O       3.87470      5.54697      2.58663        -1.451464      0.370568     -0.336857
O       3.76002      5.83320     15.38860         0.894444     -0.624972     -0.378970
O      15.16660      5.82386      2.49058         0.035177     -0.071786      0.434221
O      15.15231      5.58810     15.30147        -1.009479      0.138952      0.527756
O       3.78491      5.67571      6.87205         0.202283     -0.023179     -0.034960
O       0.00540      5.65940      6.83952         0.130957      0.137906      0.160521
O       3.75941      5.69557     11.05505        -0.162470      0.506494      0.205117
O      15.09838      5.64353     11.03141         0.624150      0.087166      0.017350
O       3.87423      9.52809      2.39388        -0.418022     -0.273119      0.522788
O       3.79748      9.44327     15.30194         0.228264     -0.165253      0.160197
O       0.04147      9.22113      2.40636        -0.795816      0.141876      0.301332
O      15.10469      9.40174     15.19486         1.523671      0.395161      0.740351
O       3.74738      9.51277      6.91049         0.640385     -0.165629     -0.056794
O       0.07760      9.47714      6.79689        -0.896803     -0.234082      0.119526
O       3.68225      9.43802     11.05785         1.348844      0.023114      0.418048
O      15.18844      9.57355     11.12704        -0.378646     -0.381934     -0.320998
O       7.52564      1.81186      2.69378         0.637485     -0.774146     -0.012383
O       7.56007      1.87556     15.26491         0.463237      0.409903     -0.125770
O       7.55205     13.33444      2.59014         0.405758      0.047155      0.276836
O       7.68612     13.21664     15.22027        -0.436378     -0.230523      0.469936
O       7.53723      1.84661      6.93020         0.804100     -0.188996     -0.078164
O       7.60317     13.17628      6.80999         0.240275      0.592552      0.125477
O       7.60654      1.88288     11.12061        -0.083461      0.169959      0.390276
O       7.63496     13.28733     11.05697        -0.496907      0.120211      0.395779
O       7.60981      5.71922      2.57531        -0.538403     -0.088973     -0.025463
O       7.57511      5.59790     15.28369        -0.531211      0.029039      0.014058
O       7.52419      5.61809      6.80702        -0.556057      0.373424      0.623137
O       7.47820      5.50054     11.02561         0.079170      0.931640      0.199665
O       7.68819      9.48062      2.62751        -0.094581     -0.136803     -0.112177
O       7.59601      9.62974     15.21510         0.682841     -0.364582      0.485571
O       7.64244      9.59205      6.78735        -1.121367      0.033387      0.782989
O       7.47879      9.59370     11.15426         1.450069     -0.559595     -0.199838
O      11.31968      1.89049      2.51199         0.469762      0.084611      0.548479
O      11.33397      1.67641     15.24169        -0.289606      0.092793      0.662770
O      11.44656     13.17391      2.64520        -0.643533     -0.071411      0.120588
O      11.47321     13.42091     15.33055        -1.272044     -0.488747      0.191368
O      11.42699      1.95218      6.70696        -0.168811     -0.580947      0.315190
O      11.51745     13.28668      6.82359        -0.352496     -0.023482      0.100644
O      11.30742      1.81756     11.14415         1.691469      0.759487     -0.199585
O      11.49398     13.40080     10.97223        -0.369394     -0.624607      0.079475
O      11.23279      5.52076      2.63288         2.105248      0.082159      0.217618
O      11.32426      5.72864     15.29021        -0.203342     -0.235687      0.354809
O      11.31873      5.63218      6.83452         0.092690      0.400554      0.366119
O      11.29876      5.88914     10.95732        -0.259683     -0.005359      0.461908
O      11.42236      9.58290      2.64657        -0.939940     -0.089099     -0.545410
O      11.36984      9.44852     15.35377        -0.508554     -0.009426      0.024164
O      11.43031      9.48949      6.73069        -0.344881     -0.295839      0.441439
O      11.33532      9.35485     11.01011         0.115575      0.374459     -0.138146
O       1.74797      3.76938      2.47700         0.346811     -0.225459      0.079033
O       1.97031      3.82833     15.21179         0.471608     -0.613503      0.557561
O       1.93608     15.13483      2.50336         0.135858      0.846108      0.210649
O       1.75569     15.17481     15.30533         0.468191      0.260461      0.028830
O      13.35815      3.79342      2.61317        -0.017318     -0.970198     -0.100059
O      13.07307      3.74097     15.34462         0.195701      0.052767      0.249077
O      13.27395     15.13500      2.69232        -0.218453      0.660908      0.338005
O      13.39250     15.14188     15.35063         0.098537      1.119652      0.055890
O       1.92618      3.75940      6.90181         0.126851      0.181847     -0.131838
O       1.91736     15.06047      6.78519        -0.332185      1.881007      0.415411
O      13.27874      3.78012      6.75599         0.004393     -0.050082      0.359244
O      13.42626     15.18749      6.59313        -0.078788     -0.317559      0.566902
O       1.87513      3.82634     11.15913         0.018792      0.020726     -0.241960
O       1.81284     15.18934     11.14175        -0.408100      0.150764      0.127084
O      13.01674      3.89275     11.06378         0.233386     -1.049077      0.016198
O      13.39736      0.01338     10.96857         0.101140      0.560902      0.319657
O       2.03566      7.52234      2.62760         0.007931     -0.386991     -0.199102
O       1.84363      7.55385     15.29927         0.055131      1.403938      0.541444
O      13.04816      7.57362      2.62700         0.689635     -0.571365     -0.276940
O      13.21040      7.63926     15.25241         0.004621     -2.250157      0.674083
O       1.96545      7.54912      6.92717        -0.085991      0.054603     -0.406663
O      13.28354      7.53339      6.82629         0.139370      0.681262      0.067224
O       1.79048      7.59874     10.98884         0.170331      0.191667      0.281232
O      13.26941      7.65155     11.02011         0.338164     -0.722073      0.414772
O       1.87260     11.23117      2.48042        -0.351574      0.870577      0.500684
O       1.90924     11.34916     15.39586         0.031239     -0.116962      0.140266
O      13.44779     11.26968      2.49585         0.439435      0.303720      0.117609
O      13.31982     11.36279     15.37915        -0.393575      0.788818      0.352517
O       1.95087     11.39261      6.81207        -0.142280     -0.510576     -0.218579
O      13.29111     11.31608      6.80945         0.422994      0.812320      0.060974
O       1.94393     11.34288     11.15228         0.122606      1.269984      0.180721
O      13.29375     11.35413     10.94022        -0.687517      0.312716      0.097623
O       5.76527      3.70502      2.54548         0.062956      0.658648      0.214298
O       5.65400      3.85726     15.21938        -0.229662     -0.712715      0.107635
O       5.54638      0.00828      2.35821         0.198920     -1.235284      0.975568
O       5.82908     15.17943     15.30281        -0.020753      0.502087     -0.041671
O       5.69506      3.73565      6.83235        -0.274039      0.735707      0.274453
O       5.64666      0.04327      7.02592         0.337184     -2.019832      0.004930
O       5.51116      3.74713     11.01946         0.385040      1.605676      0.491101
O       5.68890      0.00594     11.03690        -0.087839     -0.906127      0.631326
O       5.77109      7.56600      2.55529        -0.386487      0.455432     -0.226425
O       5.86180      7.66289     15.45269        -0.761849     -1.170197     -0.530062
O       5.65532      7.62931      6.72353         0.082536     -0.718644      0.878040
O       5.71104      7.61419     10.97041         0.045477     -0.579897      0.409130
O       5.74782     11.34673      2.61095         0.209460      0.396487      0.210282
O       5.69082     11.43597     15.37487        -0.375771     -0.685405      0.096224
O       5.61847     11.36881      6.89296         0.241807      1.203835      0.079546
O       5.70045     11.36050     11.22358        -1.009046      0.565028     -0.004189
O       9.34436      3.73248      2.49514        -0.064424     -0.317936      0.485954
O       9.52152      3.66171     15.44730         0.003025      0.476582     -0.769723
O       9.53566     15.13303      2.71542        -0.126147      0.425259     -0.127398
O       9.31564     15.13249     15.27253         0.668654      0.710438     -0.186595
O       9.43252      3.78701      6.87844         0.036708     -0.373632      0.558163
O       9.62787     15.14762      6.78149        -0.812977      0.358031      0.010044
O       9.44720      3.88470     10.95878         0.455915     -0.741447      0.329579
O       9.58653      0.00912     11.01409        -0.903017     -0.480447      0.765445
O       9.60516      7.60258      2.57790        -0.374786      0.375578     -0.499385
O       9.42724      7.53838     15.18776        -0.263728      0.526640      0.329657
O       9.35832      7.54873      6.78248         0.334755      0.261451      0.765522
O       9.31369      7.60586     11.10343        -0.477418      0.567619      0.515741
O       9.44296     11.36387      2.54144         0.065184     -0.536369      0.426163
O       9.59858     11.37455     15.13576         0.230412      1.387144      1.002150
O       9.60560     11.42688      6.97253        -0.137194     -0.569848     -0.008508
O       9.54672     11.43476     10.78784         0.094176     -0.793164      0.676227
