  # total energy = -7880.35153161 
CRSYTAL
PRIMVEC
    15.3600000000000000    0.0000000000000000    0.0000000000000000
     0.0000000000000000   15.3600000000000000    0.0000000000000000
     0.0000000000000000    0.0000000000000000    17.440000000000000
PRESSURE
1.94481 1.85076 -5.58488 -0.213316 -0.541978 0.010929
PRIMCOORD
320 1
Pb       3.79859      3.85765      4.39742         0.260585     -0.234831      0.276206
Pb       3.98371      3.79285     17.33815        -0.521273     -0.209136      0.725771
Pb       3.80672     15.32844      4.35268        -0.161572     -0.118881      0.392823
Pb       3.92077      0.03831     17.39493        -0.810063     -0.404892      0.198599
Pb      15.32289      3.83006      4.42326         0.411450     -0.289067     -0.016471
Pb       0.12246      3.85201      0.04927        -0.290072      0.013862      0.288392
Pb       0.04225     15.29694      4.31845        -0.002236      0.192394      0.436323
Pb      15.10406     15.30613      0.00720         0.657674     -0.258886     -0.173287
Pb       3.75972      3.96408      8.53017        -0.064327     -0.602579      1.612249
Pb       3.82407     15.33400      8.83442         0.064467      0.030312     -0.313797
Pb      15.04616      3.91036      8.60377         1.231516      0.317134      0.637855
Pb      15.28086      0.18138      8.67452        -0.469979     -0.969637      1.053787
Pb       3.88770      3.75764     12.93141        -0.400050      0.175158      0.386850
Pb       3.75632     15.21751     12.94669         0.005999      0.370710      0.539028
Pb      15.33050      3.68213     13.11080         0.189752      0.520967      0.362353
Pb       0.01567      0.03363     12.89878        -0.053542     -0.386747      1.141897
Pb       3.93789      7.69171      4.24855        -0.654333     -0.289613      0.694932
Pb       3.69669      7.65453      0.03913         0.214514     -0.072381     -0.202229
Pb       0.20358      7.68889      4.29381        -0.582291      0.267121      0.447251
Pb      15.32876      7.80580     17.31920        -0.423141     -0.801539      1.030592
Pb       3.96960      7.61054      8.70100        -0.506859      0.402344      0.665248
Pb      15.33802      7.63006      8.66704        -0.035538     -0.046793      0.796342
Pb       3.82030      7.64261     13.06842        -0.313334      0.087660     -0.056368
Pb       0.07490      7.69984     13.09278        -0.060835     -0.285492      0.590902
Pb       3.64137     11.47693      4.30408         0.434097      0.120720      0.266360
Pb       4.02009     11.30076     17.30151        -0.501104      0.572234      0.734389
Pb       0.17349     11.66355      4.14998        -0.965909     -0.680580      1.119045
Pb      15.27389     11.46012     17.30175        -0.120352      0.083212      1.142034
Pb       3.78229     11.60752      8.71153         0.007971     -0.295045      0.305035
Pb      15.35392     11.34891      8.64486        -0.120082      0.691694      1.321150
Pb       3.97997     11.50697     12.96300        -0.778309     -0.413778      0.836161
Pb       0.12200     11.47126     13.13879        -0.026396      0.134935      0.172902
Pb       7.69089      3.71590      4.39871        -0.085362      0.194333      0.336852
Pb       7.71221      3.91669     17.25830        -0.250099     -0.684131      1.057390
Pb       7.68069      0.05247      4.31632         0.218425     -0.087121      1.114768
Pb       7.40000     15.33570     17.30915         0.794443     -0.015022      0.561566
Pb       7.65551      3.81658      8.68101        -0.049101      0.087701      0.116794
Pb       7.68646     15.25173      8.58545        -0.004163      0.510174      0.528266
Pb       7.82590      3.98199     13.26050        -0.248530     -0.705916     -0.333410
Pb       7.70984      0.13651     13.00998        -0.529515     -0.134106      0.963729
Pb       7.53090      7.52291      4.26152         0.931520      0.239204      0.259052
Pb       7.63927      7.63730     17.42484        -0.135517      0.162423      0.586014
Pb       7.59257      7.86552      8.60776         0.148882     -0.757814      0.801467
Pb       7.62207      7.60826     12.97422        -0.085111      0.626065      0.237031
Pb       7.67259     11.39580      4.35356         0.277673     -0.002366      0.325983
Pb       7.55628     11.64912     17.29503        -0.029750     -0.444115      0.759969
Pb       7.72572     11.47543      8.68101        -0.452035      0.100553      0.245984
Pb       7.88826     11.65895     13.06397        -1.082017     -0.959082      0.336897
Pb      11.59261      3.75149      4.36132        -0.490700     -0.044189      0.012558
Pb      11.54013      3.82215      0.02848         0.043593      0.078724      0.435262
Pb      11.57922      0.01409      4.23212        -0.257701     -0.496191      0.884253
Pb      11.41336     15.29669     17.18951         0.142505      0.144494      2.206013
Pb      11.58503      4.05822      8.66067        -0.646980     -0.358988      0.909697
Pb      11.47928     15.27258      8.62564         0.085413     -0.212851      0.471611
Pb      11.53878      3.70092     13.26876        -0.095361      0.647500     -0.530128
Pb      11.41124     15.33434     13.02529         0.411169     -0.264783      0.391326
Pb      11.59112      7.69492      4.20091        -0.667771     -0.090620      0.566776
Pb      11.41050      7.57837     17.43688         0.653238      0.329983      0.672232
Pb      11.56347      7.68219      8.62960        -0.195999     -0.436106      1.002337
Pb      11.40206      7.71635     12.98753         0.186134     -0.735510      1.006629
Pb      11.57219     11.37457      4.39645        -0.314059      0.782193     -0.116634
Pb      11.37188     11.49374     17.33615         0.199961     -0.249655      0.878008
Pb      11.49115     11.51190      8.84386         0.336629      0.356088     -0.302862
Pb      11.47375     11.45098     12.93573        -0.085710      0.465706      1.193530
Ti       1.93998      1.89051      2.40347         0.224408     -0.070655     -1.053982
Ti       1.89128      1.84348     15.45383        -0.148886     -0.230483     -0.526725
Ti       1.89006     13.41449      2.17172         0.701842      0.562204     -1.277369
Ti       1.87856     13.36524     15.48977        -0.069723      0.759434     -0.865712
Ti      13.48487      1.87955      2.36386        -0.201101      0.107827     -0.754383
Ti      13.43100      1.87833     15.49130         0.453511     -0.036181     -1.300837
Ti      13.39834     13.41377      2.33262        -0.833010     -0.177042     -1.219747
Ti      13.31505     13.32713     15.40196         1.188759      0.239805     -1.635375
Ti       1.89932      1.90241      6.82266         0.259078      0.930361     -1.340275
Ti       1.79425     13.48628      6.86845         0.693988     -0.647678     -1.372472
Ti      13.34627      1.92237      6.68613        -0.231735     -0.748167     -1.246505
Ti      13.42136     13.36506      6.78107        -0.695930      0.864646     -1.408312
Ti       1.93331      1.92404     10.99359        -0.298276      0.195937     -1.907475
Ti       1.84891     13.37037     11.04998         0.142658     -0.404056     -1.647135
Ti      13.39419      1.89542     11.06227        -0.486600      0.013518     -1.103532
Ti      13.40960     13.41115     11.16488        -0.398247     -0.018669     -2.369911
Ti       1.90480      5.63680      2.39480         0.458596      1.051288     -1.585914
Ti       1.87289      5.69623     15.46973        -0.330853      0.642735     -1.533233
Ti      13.46274      5.71666      2.41048         0.053190      0.159755     -2.037397
Ti      13.43479      5.66950     15.52504         0.055104      1.186915     -1.434068
Ti       1.91586      5.82004      6.74251        -0.968714     -0.859033     -1.248246
Ti      13.37838      5.82566      6.53240         0.128572      0.112511     -0.823872
Ti       1.84872      5.72636     11.13927         0.141034      0.191817     -2.281905
Ti      13.41361      5.71666     11.30409        -0.841130      0.123888     -1.355394
Ti       1.89505      9.54061      2.25327        -0.318267      0.107213     -1.409686
Ti       1.83521      9.59132     15.44906         0.735458     -0.460700     -1.594949
Ti      13.42811      9.59739      2.37128         0.832600     -0.036610     -1.713301
Ti      13.30042      9.55265     15.39867        -0.043185     -0.608156     -1.302125
Ti       1.89474      9.56428      6.72678         0.338990      0.457892     -1.750639
Ti      13.42409      9.60772      6.70251        -0.025503     -0.313815     -1.509601
Ti       1.88274      9.56926     11.08624         0.134649     -0.045805     -0.839605
Ti      13.41372      9.58676     11.20530         0.642953     -0.979878     -2.046070
Ti       5.77686      1.86876      2.43970        -0.199415      0.786958     -1.954168
Ti       5.74693      1.86980     15.32780        -0.165463      0.160371     -1.417157
Ti       5.75120     13.37919      2.46587        -0.755862     -0.385524     -1.894561
Ti       5.64968     13.36483     15.26826         0.471399     -0.089457     -0.609822
Ti       5.72820      1.91441      6.82547         0.350059     -0.069940     -2.013795
Ti       5.71628     13.41491      6.75190        -0.578606     -0.057649     -1.617687
Ti       5.79570      1.89903     11.02609        -0.372186      0.090104     -0.987078
Ti       5.78817     13.46221     11.10014        -0.747158     -1.339674     -1.252060
Ti       5.70981      5.62677      2.33690         0.125094      0.274868     -1.431475
Ti       5.66253      5.75032     15.44748        -0.121761      0.038715     -1.284161
Ti       5.77251      5.75506      6.69885         0.257176     -0.088072     -1.103034
Ti       5.74358      5.70507     11.09084        -0.651865      0.370648     -2.304072
Ti       5.74314      9.59499      2.39586         0.163939     -0.478851     -2.424708
Ti       5.74015      9.46277     15.34961        -0.824160      0.705191     -1.248818
Ti       5.68766      9.62316      6.67574        -0.471008      0.040702     -1.393748
Ti       5.69025      9.57106     11.12045         0.652101      0.260474     -1.089781
Ti       9.62280      1.85203      2.32612         0.008774      0.046325     -1.763843
Ti       9.59256      1.85663     15.48615        -1.049607      0.227413     -0.576391
Ti       9.51873     13.40261      2.41660         1.041736     -0.615025     -1.362060
Ti       9.54734     13.40784     15.39188        -0.911041      0.048587     -1.515450
Ti       9.62970      1.95939      6.77435        -1.039986     -0.436413     -1.963584
Ti       9.54478     13.40664      6.68582         0.750143      0.008056     -0.935482
Ti       9.56357      1.92346     11.02945        -0.479603      0.502652     -0.337176
Ti       9.51461     13.49761     11.07856         1.045669     -0.618981     -2.103625
Ti       9.64020      5.62163      2.43442        -1.044896      0.916426     -1.532366
Ti       9.60778      5.76445     15.46636         0.186629     -0.272373     -1.264923
Ti       9.55373      5.75378      6.70219        -0.310605      0.068291     -1.264708
Ti       9.57899      5.66148     11.11560         1.293171      0.176209     -1.190179
Ti       9.61420      9.55922      2.30406        -1.080702     -0.709281     -0.353290
Ti       9.44585      9.55170     15.41470         1.157282      0.194067     -1.119937
Ti       9.64633      9.60579      6.75824        -0.666234     -0.728864     -1.713996
Ti       9.54336      9.52613     11.07387        -1.543681     -0.046326     -1.198692
O       1.94173      1.98428      0.60588        -0.011872     -0.196258      0.938412
O       1.79216      1.82145     13.64567         0.411363      0.165264      0.864630
O       1.99171     13.41900      0.40284        -0.433397      0.144626      0.741246
O       1.82869     13.37339     13.63892         0.022870      0.177688      1.372927
O      13.40919      1.79367      0.55964         0.304220      0.108793      0.365553
O      13.43262      1.96955     13.65636         0.068294     -0.291582      1.426140
O      13.35798     13.44527      0.48720        -0.001676      0.116685      1.481710
O      13.33339     13.31928     13.57303        -0.076889      0.133750      1.102103
O       1.94910      1.89551      4.96031        -0.214586     -0.048436      1.598016
O       1.83248     13.41481      4.96007        -0.162286     -0.039147      1.617421
O      13.41643      1.91314      4.82562        -0.208296      0.224017      1.964913
O      13.47817     13.41919      4.93671         0.010227     -0.172660      1.443426
O       1.81432      1.93314      9.15279         0.172814     -0.106311      1.491178
O       1.87773     13.25579      9.19909         0.150995      0.534393      1.377697
O      13.30804      1.86016      9.19588         0.245238      0.390189      2.205239
O      13.27883     13.38458      9.25068        -0.069228      0.001569      2.097168
O       1.93446      5.65208      0.55567         0.001063      0.200508      1.341284
O       1.82788      5.68240     13.63214         0.354884      0.222682      0.943932
O      13.37820      5.68469      0.54072         0.138848     -0.092180      1.748401
O      13.27858      5.62443     13.66590         0.518676      0.014022      1.478586
O       1.90817      5.76437      4.92525        -0.157821      0.085342      0.834716
O      13.26951      5.78684      4.72674         0.475287     -0.188207      0.769905
O       1.78160      5.76758      9.25602         0.017004     -0.006559      1.471562
O      13.34816      5.66294      9.42973         0.131240      0.091226      1.227488
O       1.93700      9.56611      0.37786         0.030211     -0.253397      1.813893
O       1.80199      9.55371     13.58377         0.042019      0.131587      1.589476
O      13.58276      9.62146      0.57441        -0.792313     -0.034904      1.098627
O      13.23717      9.55763     13.54082         0.401938      0.199923      1.036109
O       1.82579      9.67863      4.81297         0.204575     -0.183658      1.843197
O      13.30776      9.62419      4.80777         0.277377     -0.179805      1.919610
O       1.83443      9.50862      9.29763        -0.147527      0.278761      0.020464
O      13.46828      9.47756      9.28720        -0.285405      0.434661      2.297464
O       5.81112      1.91379      0.48583        -0.305572     -0.392505      2.143883
O       5.76631      1.84969     13.49435        -0.285490      0.153438      1.459296
O       5.83469     13.30554      0.50635        -0.219094      0.442227      2.200199
O       5.70378     13.28094     13.47579        -0.154263      0.669604      0.486625
O       5.83081      1.98392      4.92153        -0.429729     -0.412609      1.635574
O       5.72021     13.40266      4.93105        -0.332258     -0.036339      0.855025
O       5.69718      1.88483      9.19438         0.461097      0.021230      1.002410
O       5.63165     13.37047      9.25952         0.411429      0.253932      1.069658
O       5.57880      5.59804      0.43198         0.767965      0.225217      1.708819
O       5.59971      5.75937     13.59725         0.239548     -0.037886      0.888640
O       5.73259      5.73289      4.86127        -0.032815      0.147534      1.294309
O       5.65743      5.79960      9.18499         0.384253     -0.253152      2.013370
O       5.77638      9.62970      0.41445        -0.311740     -0.040961      2.169967
O       5.59890      9.47618     13.49975         0.514078     -0.225137      1.489976
O       5.55347      9.54559      4.82215         0.582482      0.368188      1.251398
O       5.70355      9.55595      9.27779        -0.028609      0.000900      0.688293
O       9.57751      1.84402      0.46543        -0.016261      0.173659      1.544551
O       9.43701      1.81663     13.68870         0.426894      0.084434      0.732714
O       9.52580     13.35533      0.56909        -0.187659      0.067770      1.317012
O       9.53178     13.48133     13.54669         0.182060     -0.252587      1.123238
O       9.49877      1.87743      4.90929         0.442386      0.352762      1.306720
O       9.53609     13.29128      4.91161        -0.157694      0.220856      0.354773
O       9.43674      1.88230      9.25499         0.407232      0.237720      0.457307
O       9.54531     13.50428      9.19380        -0.162130     -0.341738      1.766806
O       9.58501      5.69162      0.52990        -0.078191     -0.258044      1.439259
O       9.65906      5.66086     13.63674        -0.703532      0.410565      1.582118
O       9.40860      5.62073      4.89759         0.689314      0.453933      0.636663
O       9.81087      5.68900      9.30651        -0.849670     -0.179229      1.071295
O       9.60888      9.41698      0.51446        -0.372679      0.659000      0.721380
O       9.50383      9.59901     13.58934        -0.026315     -0.329319      1.114719
O       9.54154      9.58540      4.94061         0.474100      0.169191      1.273852
O       9.52171      9.46925      9.24423         0.054591      0.534066      0.860040
O       3.89279      1.91312      2.81055        -0.624566     -0.236129     -0.141983
O       3.87946      1.81563     15.82216        -0.855150      0.865274     -0.452238
O       3.77144     13.37312      2.70254         0.505554      0.394982      0.109971
O       3.81807     13.42782     15.72442        -0.555893     -0.650927     -0.134450
O       0.04416      2.00068      2.84542        -0.317732     -0.196366     -0.436653
O      15.32629      1.91276     15.90953         0.040361     -0.332200     -0.307908
O      15.31866     13.51243      2.63719         0.418595     -0.377422     -0.178146
O      15.23019     13.37097     15.85935         0.617567      0.404848     -0.446947
O       3.78646      1.91109      7.17272        -0.257002      0.012050     -0.405009
O       3.71956     13.53573      7.15029         0.210899     -0.572308     -0.033007
O      15.17923      1.88157      7.15054         0.711132      0.727286     -0.744145
O      15.26007     13.45860      7.28457         0.591347     -0.365596     -0.697207
O       3.78418      1.84755     11.35061         0.519693     -0.084496      0.275003
O       3.74928     13.31628     11.45130         0.947619      0.527836     -0.244923
O      15.33494      1.94349     11.42567        -0.484582     -0.617127     -0.312739
O      15.31759     13.46402     11.46259        -0.340770     -0.288726     -0.169918
O       3.81147      5.76348      2.78083         0.045728     -0.185959     -0.222244
O       3.76490      5.77029     15.86886         0.551323      0.009176     -0.437324
O       0.02637      5.68876      2.82331        -0.860131     -0.081083     -0.214376
O      15.35145      5.78731     15.90919        -0.466847     -0.152896     -0.322145
O       3.80035      5.75862      7.08563        -0.027022      0.427475     -0.425175
O      15.23530      5.68923      7.04207         0.178649      0.355680     -0.267109
O       3.72428      5.72998     11.35689         1.251563      0.031253      0.543872
O      15.31211      5.74763     11.58775        -0.284704     -0.145444     -0.225819
O       3.74102      9.49212      2.71613         0.612667      0.719068     -0.426077
O       3.83578      9.56319     15.72986        -0.089275     -0.037295     -0.033709
O       0.03160      9.58762      2.67018        -0.770890     -0.070221      0.146081
O      15.28321      9.57548     15.85121        -0.270007      0.228801     -0.857069
O       3.76404      9.43685      7.06902         0.269138      0.633154     -0.135601
O      15.31557      9.61827      7.13451        -0.395448     -0.544987     -0.671230
O       3.72630      9.57398     11.46498         1.470724      0.081514     -0.104844
O       0.01530      9.50140     11.60162        -2.108285      0.614139     -0.603326
O       7.68884      1.93580      2.73272         0.059781     -0.289980     -0.125906
O       7.61812      1.80769     15.77541         0.020503      0.176859     -0.137497
O       7.58110     13.40617      2.86470         0.804448     -0.171220     -0.479286
O       7.60902     13.44632     15.63447         0.194029     -0.227257      0.308712
O       7.63876      1.98977      7.09675        -0.093155     -0.179598      0.268451
O       7.61844     13.37456      7.08944        -0.196433     -0.099424      0.090371
O       7.62804      1.97590     11.47715         0.131646     -0.348648     -0.283709
O       7.65293     13.39308     11.47210        -0.194625      0.231855     -0.411074
O       7.57362      5.69878      2.73672         0.666323     -0.256849     -0.404988
O       7.61071      5.75432     15.78446         0.465696      0.148609     -0.276409
O       7.64486      5.66212      7.05351         0.044185      0.284318      0.272472
O       7.67818      5.72719     11.46839        -1.154855     -0.540676      0.064486
O       7.56169      9.56792      2.71875         0.999661     -0.056473      0.012997
O       7.62961      9.57842     15.74600        -0.031556     -0.529069     -0.016565
O       7.59579      9.69768      7.05623         0.113903     -0.326835      0.047555
O       7.61222      9.49393     11.42301         0.442854      0.216046      0.094648
O      11.54959      1.86236      2.66287        -0.604322     -0.221292      0.244186
O      11.50185      1.89351     15.82651        -0.117823      0.260161     -0.417846
O      11.48849     13.47274      2.77632         0.023318     -0.022443     -0.249845
O      11.42160     13.41201     15.85675        -0.017380     -0.603145     -0.678258
O      11.45709      1.92080      7.08750         0.819911     -0.311695     -0.167880
O      11.41673     13.37317      7.05467         0.825026      0.077382      0.296688
O      11.39467      1.84059     11.56542         1.090192      0.143411     -0.610523
O      11.43442     13.43294     11.45065        -0.078704      0.260930     -0.022736
O      11.46391      5.70567      2.72697         0.386133      0.067831     -0.003077
O      11.49428      5.74232     15.95141        -0.323370     -0.429745     -0.551770
O      11.48246      5.78372      7.06120         0.112297      0.643048     -0.302919
O      11.40924      5.67198     11.65434         0.833136     -0.092868     -0.491814
O      11.46262      9.58691      2.65337         0.715709     -0.219821      0.147911
O      11.49850      9.59777     15.88744        -0.709641     -0.291860     -0.360003
O      11.52843      9.52855      7.18671        -0.045697      0.314993     -0.603170
O      11.36320      9.61053     11.49386         1.352683     -0.352097     -0.617453
O       1.92797      3.83572      2.82460         0.109676     -0.594307      0.103972
O       1.83519      3.87853     15.86814         0.412510     -1.491031     -0.422299
O       1.89120     15.34555      2.72027         0.170921     -0.137218     -0.093347
O       1.92594     15.35063     15.88467        -0.290812     -0.113796     -0.319406
O      13.33324      3.78333      2.73896         0.530203      0.396767      0.032103
O      13.49102      3.83191     15.91737        -0.561937     -0.807513     -0.230932
O      13.52935      0.02426      2.85870        -0.345141     -0.579747     -0.719158
O      13.33147     15.28296     15.70129         0.314916      0.617395      0.263206
O       1.81766      3.88507      7.11866         0.053446     -0.761688     -0.343095
O       1.81345      0.01134      7.25513        -0.038827      0.028475     -0.611552
O      13.25125      3.96814      7.00399         0.636132     -1.704823     -0.347160
O      13.36302     15.30979      7.16779        -0.200184      0.656703     -0.656176
O       1.92784      3.77766     11.42436        -0.308124      0.092446      0.173952
O       1.97332     15.29031     11.37558        -0.654079      0.481240     -0.000362
O      13.40242      3.75385     11.63617        -0.297038     -0.286965     -0.791420
O      13.36938     15.32247     11.55764        -0.006619      0.767000     -0.497176
O       1.86769      7.66351      2.76895         0.246309     -0.258175     -0.691386
O       1.84339      7.73285     15.82050         0.403053     -1.104685     -0.082515
O      13.40897      7.61872      2.67657         0.037885      0.589857      0.052892
O      13.39026      7.66409     15.83537         0.012895     -0.042023     -0.152810
O       1.79419      7.68067      7.07408        -0.131202     -0.208619     -0.125101
O      13.44280      7.64654      7.10826        -0.168898      0.555840     -0.538069
O       1.90327      7.70999     11.45816        -0.364410     -1.507497      0.354433
O      13.28794      7.63539     11.54913         0.321045      0.385828     -0.230713
O       1.83855     11.52081      2.53287         0.415838     -0.097177      0.314404
O       1.79261     11.43330     15.85009         0.496173      1.311902     -0.601328
O      13.33404     11.53902      2.71408         0.459701     -0.147639     -0.119267
O      13.39436     11.45433     15.78935        -0.370216      0.240801     -0.007612
O       1.88661     11.43428      7.17800         0.017330      0.639252     -0.557644
O      13.37434     11.46192      7.17266        -0.142965     -0.118862     -0.317051
O       1.83513     11.50972     11.50628        -0.224909     -0.099745     -0.232783
O      13.32131     11.49989     11.45858         0.380227     -0.669460     -0.257436
O       5.67406      3.80574      2.82840         0.170050     -0.254042     -0.527401
O       5.78483      3.80745     15.68835        -0.357897     -0.083182     -0.105983
O       5.76205     15.35830      2.90785        -0.233956     -0.475843     -0.995517
O       5.57731     15.27058     15.74496         1.133291      0.395091     -0.246664
O       5.73069      3.87884      7.09084        -0.380194     -0.544931      0.052969
O       5.63601     15.33642      7.11844         0.559612      0.193572     -0.044411
O       5.66082      3.78978     11.36139         0.129967      0.575747      0.080999
O       5.76517     15.30860     11.42422        -0.322687      0.197945     -0.212463
O       5.74662      7.62917      2.69947        -0.373518     -0.051123     -0.308363
O       5.71873      7.65555     15.88700         0.039455     -0.465815     -0.478065
O       5.72352      7.68794      7.05532         0.306615     -0.062328     -0.148288
O       5.75587      7.63041     11.40533        -0.522896     -0.582738      0.242605
O       5.72972     11.44835      2.75101        -0.438502      0.859943     -0.001966
O       5.78682     11.46311     15.70296        -0.312832      0.081263     -0.238341
O       5.62691     11.50714      7.08510        -0.150611     -0.148412     -0.041281
O       5.78562     11.46665     11.49693        -0.150035      0.171399     -0.498552
O       9.65815      3.73910      2.76197        -0.270682      0.142636     -0.243212
O       9.56635      3.81062     15.70026        -0.168595     -0.093681      0.297390
O       9.57572     15.29261      2.81030        -0.327322      0.483171     -0.415139
O       9.51537     15.28221     15.79091         0.329726      0.212970     -0.182412
O       9.67359      3.84755      7.10556        -0.576494      0.030733      0.161614
O       9.51575     15.34538      7.06437        -0.000498     -0.002638     -0.070895
O       9.53742      3.76825     11.66140         0.017210      0.019196     -0.754384
O       9.45090     15.35426     11.45557         0.373957      0.329246     -0.189903
O       9.54110      7.62344      2.76687         0.025027     -0.066070     -0.163776
O       9.57282      7.64100     15.93843        -0.207735      0.024407     -0.881713
O       9.47630      7.65454      7.16056         0.381825      0.192740     -0.483415
O       9.47764      7.59631     11.50382         0.562833      0.511377     -0.267421
O       9.58631     11.43331      2.76303        -0.392520      0.604142     -0.199593
O       9.55911     11.44132     15.71773        -0.035735      0.840338      0.126653
O       9.60196     11.46698      7.11761        -0.163992      0.052191      0.354051
O       9.53126     11.52585     11.40923        -0.012647     -0.200702     -0.345350
