  # total energy = -7883.91297217 
CRSYTAL
PRIMVEC
    15.3600000000000000    0.0000000000000000    0.0000000000000000
     0.0000000000000000   15.3600000000000000    0.0000000000000000
     0.0000000000000000    0.0000000000000000    17.440000000000000
PRESSURE
1.25369 1.00586 -4.02953 -0.151623 -0.329322 0.009885
PRIMCOORD
320 1
Pb       3.86681      3.77016      4.28626        -0.131970     -0.146257     -0.048178
Pb       3.73987      3.81952     17.42736         0.065675      0.208048     -0.008087
Pb       3.81273     15.29200      4.31169         0.143908      0.015214      0.014573
Pb       3.77045     15.25727     17.36050         0.039656      0.191697      0.307018
Pb       0.03313      3.79151      4.26486        -0.078680      0.023773      0.595094
Pb      15.29735      3.79940     17.33923         0.660939      0.032350      0.367406
Pb      15.35755      0.00929      4.34218         0.107003     -0.106886      0.058312
Pb       0.10075      0.00287     17.36343        -0.118002     -0.238503      0.303203
Pb       3.83803      3.78657      8.71393         0.183247      0.402702      0.135541
Pb       3.83435      0.01769      8.50936         0.055853     -0.373742      0.995585
Pb       0.11265      3.85828      8.72785        -0.289352      0.036743      0.103063
Pb      15.31252     15.29623      8.69877        -0.090990      0.391327      0.035674
Pb       3.83326      3.85541     13.08784         0.072407      0.048304     -0.099080
Pb       3.88057      0.10837     13.04074        -0.154073     -0.326975      0.529600
Pb       0.03070      3.84921     13.01610        -0.136547     -0.044142     -0.285414
Pb      15.32308     15.29152     13.09705        -0.011516      0.016622     -0.348781
Pb       3.79948      7.65019      4.35562         0.116182      0.029861      0.163460
Pb       3.88902      7.64139     17.33999        -0.513046     -0.066425      0.447682
Pb      15.26471      7.72152      4.30449         0.107387     -0.330199      0.608473
Pb      15.34790      7.54735      0.00980         0.532604      0.179429     -0.163737
Pb       3.72200      7.73560      8.59629         0.260770     -0.151529      0.907553
Pb      15.35385      7.71820      8.63032        -0.124294     -0.020082      0.491411
Pb       3.88035      7.66438     12.97528        -0.658679      0.003798      0.781030
Pb      15.27045      7.62442     13.02225         0.398768      0.403786     -0.377139
Pb       3.93742     11.48826      4.38220        -0.175154      0.256338      0.003676
Pb       3.69629     11.62761     17.40352         0.456261     -0.744224      0.171443
Pb      15.24077     11.40092      4.42477         0.273796      0.430435     -0.112841
Pb      15.34908     11.51074     17.42335         0.169059     -0.050945     -0.110247
Pb       3.90658     11.45241      8.63517        -0.336242      0.209120      0.210814
Pb      15.32449     11.59459      8.69635         0.260510     -0.549266      0.133659
Pb       3.78786     11.48776     13.05463         0.002699     -0.133633      0.006956
Pb      15.34724     11.51469     12.96924        -0.035978     -0.565643     -0.182244
Pb       7.63369      3.85432      4.25985        -0.068204     -0.458554      0.074619
Pb       7.57245      3.76052      0.06414         0.065620      0.391447     -0.513204
Pb       7.62717     15.23468      4.40656         0.121765      0.022065     -0.266057
Pb       7.78097     15.33170     17.42966        -0.380776     -0.208319     -0.015883
Pb       7.66197      3.87262      8.61783         0.153901      0.020909      0.032986
Pb       7.64984      0.09012      8.72913         0.224031     -0.264818     -0.345719
Pb       7.68416      3.81104     12.93590         0.019890      0.166278      0.912181
Pb       7.61535     15.32881     13.05054        -0.013715     -0.112279      0.240815
Pb       7.74180      7.70095      4.37621        -0.203840      0.205663      0.182633
Pb       7.58785      7.74516     17.36815        -0.023506     -0.722138      0.431562
Pb       7.77133      7.54228      8.70622        -0.304444      0.440224      0.022364
Pb       7.75431      7.73051     13.08262        -0.529630     -0.293906      0.123595
Pb       7.64839     11.50628      4.33889        -0.248520     -0.410299      0.267710
Pb       7.66519     11.42069     17.38104        -0.020689      0.318903     -0.042225
Pb       7.64006     11.58996      8.67005         0.346486     -0.550111      0.189642
Pb       7.57680     11.45090     12.97578         0.045644      0.316238      0.369212
Pb      11.46128      3.90250      4.29067         0.300486     -0.254216     -0.126181
Pb      11.52703      3.83514     17.42179        -0.216221     -0.213809     -0.017836
Pb      11.56454     15.29435      4.44060        -0.157802      0.108306     -0.544753
Pb      11.47846     15.35325      0.08808         0.014242      0.002038     -0.456528
Pb      11.49142      3.71304      8.66278        -0.259116      0.540148      0.216049
Pb      11.51424      0.10335      8.72710         0.156237     -0.424843     -0.406459
Pb      11.53080      3.79416     12.97974         0.020333      0.175063      0.020855
Pb      11.53763      0.01066     13.07275        -0.117347     -0.554477     -0.282686
Pb      11.49394      7.60042      4.37755        -0.118463      0.587698     -0.331034
Pb      11.50761      7.74603     17.35807        -0.078888     -0.550736      0.456075
Pb      11.53410      7.69870      8.66293        -0.239741     -0.203914      0.042631
Pb      11.53486      7.59304     13.14376         0.128600      0.205013     -0.330041
Pb      11.48843     11.57148      4.24124         0.019526     -0.551076      0.195755
Pb      11.49302     11.47982     17.40940        -0.333716      0.077786     -0.056253
Pb      11.55955     11.51039      8.58569        -0.731244     -0.009776      0.722038
Pb      11.54652     11.53999     13.09972        -0.107646      0.173835     -0.114718
Ti       1.90779      1.87988      2.34530         0.218586     -0.155810     -1.516008
Ti       1.93180      1.88387     15.38847        -0.209944     -0.069024     -1.381535
Ti       1.88161     13.37945      2.42494         0.610501     -0.313013     -1.057581
Ti       1.90874     13.36226     15.35091         0.112100      0.424181     -0.966479
Ti      13.37515      1.87013      2.36576         0.611928      0.023003     -0.460156
Ti      13.46986      1.85768     15.38936        -0.254077     -0.152125     -0.512430
Ti      13.45183     13.41810      2.33426         0.290749      0.023553     -0.986369
Ti      13.38211     13.43156     15.49714         0.106254     -0.185870     -1.754840
Ti       1.89763      1.94597      6.79162        -0.526106      0.108808     -1.593279
Ti       1.87002     13.48295      6.73561         0.388016     -0.688579     -1.569868
Ti      13.41226      1.93163      6.70890         0.655867     -0.411298     -1.006691
Ti      13.44112     13.41207      6.65087        -0.582947      0.323295     -0.261698
Ti       1.91153      1.83626     11.07483        -0.213207      0.649069     -0.888078
Ti       1.90683     13.45682     11.05138        -0.553063     -0.843047     -0.736123
Ti      13.44926      1.89256     11.03092         0.381842      0.077464     -0.838352
Ti      13.39643     13.43095     10.93485        -0.245162     -0.283502     -0.425143
Ti       1.91079      5.76423      2.39146        -0.083298     -0.992695     -2.285398
Ti       1.94485      5.70752     15.34684        -0.313666      0.062201     -0.003833
Ti      13.46921      5.74506      2.37108        -0.912728     -0.089755     -1.508637
Ti      13.44456      5.67095     15.47265        -0.611965      1.064336     -0.720379
Ti       1.91421      5.77438      6.71700        -1.001245     -0.125074     -1.330434
Ti      13.41372      5.66155      6.68116         0.436821      1.270285     -0.358696
Ti       1.86166      5.72204     11.06480         0.394658      0.879489     -0.759130
Ti      13.35208      5.78490     10.94901         1.058531     -0.507258      1.293312
Ti       1.81172      9.54429      2.40163         1.197340      0.654113     -1.646209
Ti       1.85949      9.53416     15.36551         0.840116     -0.363302     -1.675930
Ti      13.35854      9.60186      2.30291        -0.625098      0.253979     -1.243749
Ti      13.42608      9.57005     15.49384        -0.147271     -0.226434     -1.558874
Ti       1.84955      9.62032      6.64951        -0.166067      0.464217     -0.308904
Ti      13.37684      9.54602      6.69585         0.329146     -0.105753     -1.314334
Ti       1.88011      9.55699     11.05850        -0.875976     -0.457019     -0.277974
Ti      13.31695      9.60883     11.01270         1.483068     -0.296494     -0.180808
Ti       5.76234      1.90258      2.22164        -0.272191     -0.458172      0.972064
Ti       5.72962      1.84845     15.46507         0.125474      0.677622     -0.403749
Ti       5.80134     13.41217      2.28810        -0.911257     -0.288344     -0.082535
Ti       5.76904     13.46324     15.45030         0.239855     -1.081147     -2.413839
Ti       5.75495      1.88671      6.65957         0.708375      0.081193     -0.542813
Ti       5.75022     13.40710      6.75080         0.324116     -0.815587     -1.828160
Ti       5.78617      1.94028     11.01266        -0.232867     -0.027569     -0.842585
Ti       5.64374     13.44742     11.04976         0.570354      0.184301     -0.862592
Ti       5.75612      5.83942      2.43784        -0.480066     -0.668004     -1.757054
Ti       5.74252      5.74263     15.35664         0.340466     -0.756879     -0.250393
Ti       5.68179      5.71756      6.70656         0.973158      0.483546     -0.930519
Ti       5.76659      5.77413     11.03772        -0.432406     -0.134741     -1.250880
Ti       5.61462      9.56390      2.34144         1.614034      0.434590     -0.735582
Ti       5.68123      9.62522     15.43595        -0.410960     -0.093087     -1.412003
Ti       5.68439      9.53186      6.69392         1.276980      0.540148     -0.964939
Ti       5.66753      9.55892     11.03090         0.430129     -0.086812     -0.683430
Ti       9.58180      1.82238      2.32235         0.120099     -0.213820     -0.601447
Ti       9.58131      1.88035     15.43474        -0.765227      0.091187     -0.557532
Ti       9.58527     13.35590      2.33604         0.214236      0.442997     -0.613670
Ti       9.57220     13.41942     15.41505        -0.706262     -0.374167     -0.413460
Ti       9.56436      1.95071      6.56307        -0.355450     -0.227186      1.325885
Ti       9.60776     13.46314      6.72245        -0.498912     -0.296498     -0.897072
Ti       9.60288      1.88376     11.00851        -0.140912     -0.262183     -1.210533
Ti       9.56587     13.41008     11.03879         0.133841     -0.355087     -0.759164
Ti       9.56610      5.70214      2.29477        -0.315086      0.622355     -0.154508
Ti       9.55649      5.65663     15.50406        -0.590023     -0.110102     -1.559243
Ti       9.64354      5.77589      6.60764        -0.463630     -0.088002     -0.533907
Ti       9.55438      5.71619     11.07587         0.093278      0.494767     -1.724513
Ti       9.52187      9.57098      2.32599        -0.404812     -0.326240     -0.465107
Ti       9.52728      9.50770     15.39651        -0.056446      0.776026     -0.904933
Ti       9.53597      9.57875      6.76611        -0.583767     -0.060923     -0.220572
Ti       9.58328      9.57646     11.11071        -0.451805      0.430100     -1.707330
O       1.92360      1.77097      0.48689        -0.182563      0.257237      1.560720
O       2.01430      1.90220     13.56454        -0.536098      0.024216      0.256145
O       1.92480     13.38848      0.53835        -0.102971     -0.127532      0.944491
O       1.93980     13.33004     13.56189        -0.242040      0.146213      0.596112
O      13.38333      1.87894      0.59352         0.170702      0.093284     -0.425180
O      13.49852      1.80085     13.58005        -0.419327      0.236135      0.868611
O      13.44969     13.36693      0.51273         0.015378     -0.041758      0.448934
O      13.25612     13.50040     13.61524         0.460837     -0.254644      1.800450
O       1.93951      1.98485      5.00166         0.026126     -0.110312      0.193286
O       1.89120     13.49471      4.93598         0.000228      0.001751      0.600546
O      13.37018      1.84181      4.92874        -0.073585      0.117635     -0.160202
O      13.47426     13.41737      4.83095        -0.321768     -0.128849      0.489101
O       1.79158      1.86753      9.20272         0.520405      0.112484      1.266734
O       1.82524     13.49313      9.25466        -0.043232      0.023574      0.110252
O      13.40369      1.88160      9.21814        -0.004733     -0.098418      0.192662
O      13.41028     13.51919      9.09522         0.074435     -0.213279      1.471720
O       1.94794      5.70047      0.52496        -0.514723     -0.028645      1.395523
O       1.99640      5.62391     13.54168        -0.574354      0.042196      0.758277
O      13.40156      5.81381      0.53152         0.178911     -0.458557      1.134833
O      13.45146      5.62161     13.69422        -0.299612      0.126474     -0.246635
O       1.83742      5.74461      4.87265         0.287930      0.028065      1.492505
O      13.52310      5.70599      4.90764        -0.582404      0.149504     -0.531434
O       1.89885      5.77127      9.24603        -0.138309     -0.109238      0.560627
O      13.37290      5.80757      9.23859        -0.139217     -0.044317     -0.986837
O       1.83140      9.59701      0.58866         0.025371      0.066477      1.073648
O       1.93304      9.56916     13.47040        -0.325467      0.029818      2.526874
O      13.22071      9.58242      0.42267         0.570093     -0.039200      1.267950
O      13.36144      9.69470     13.66567         0.150950     -0.587874      0.994328
O       1.89968      9.55713      4.86039        -0.295152      0.003518      0.362124
O      13.42080      9.68813      4.86613         0.078488     -0.030379      0.853670
O       1.79043      9.46910      9.26077         0.445638      0.245202     -0.083730
O      13.36165      9.42759      9.23443        -0.130493      0.354949      0.196995
O       5.56505      1.87952      0.48065         0.456600     -0.001399     -0.093741
O       5.75202      1.82850     13.65839        -0.074399      0.175598      0.618211
O       5.64011     13.37362      0.51319         0.423711     -0.136133      0.670090
O       5.76825     13.46820     13.59262        -0.252396      0.148439      0.481452
O       5.81930      1.87800      4.89054        -0.017484      0.018056      0.440559
O       5.77713     13.29225      4.89339         0.136059      0.533876      0.945930
O       5.76091      1.97144      9.20401         0.038686     -0.356517      0.332158
O       5.71234     13.44328      9.20509        -0.110614      0.119438      1.096554
O       5.67049      5.86510      0.62941         0.168055     -0.271155      1.006432
O       5.74300      5.59829     13.58697        -0.044639      0.228721     -0.117412
O       5.65436      5.71464      4.87220         0.087233     -0.003009      0.840680
O       5.77831      5.65325      9.16979        -0.036168      0.389956      1.531533
O       5.69672      9.51356      0.53101         0.080653      0.049366      0.401932
O       5.69459      9.58891     13.62048        -0.102748      0.137052      0.467532
O       5.66721      9.70827      4.86844         0.203262     -0.677209      1.071534
O       5.62881      9.56087      9.22743        -0.074434      0.060101      0.973015
O       9.43280      1.76199      0.50949         0.978324      0.252689      0.619736
O       9.45939      1.91002     13.65005         0.487687      0.128375     -0.127846
O       9.49795     13.35966      0.55571         0.335028      0.130914     -0.016678
O       9.62323     13.34741     13.64681         0.015964      0.466559     -0.018428
O       9.60255      1.81292      4.84350         0.082338      0.300510     -1.020180
O       9.52069     13.40945      4.90051         0.582339     -0.119036      0.697161
O       9.54565      1.98282      9.18130         0.298916     -0.451887      0.876869
O       9.53442     13.35332      9.22145         0.146168      0.617980      0.961217
O       9.43377      5.72044      0.52241         0.468577     -0.209279      0.256479
O       9.46189      5.68471     13.65526         0.786440     -0.298713      0.605941
O       9.67534      5.86245      4.75492        -0.177630     -0.362614      1.234553
O       9.57152      5.74588      9.24978        -0.131621     -0.044673      1.072724
O       9.43067      9.58971      0.53222         0.504498     -0.096810     -0.216300
O       9.45879      9.62598     13.58158         0.416605     -0.413810      0.943595
O       9.44898      9.39086      4.99402         0.371447      0.612946      0.188783
O       9.60583      9.63653      9.29751         0.021348     -0.538992      0.625149
O       3.83395      1.89626      2.77129         0.317886     -0.427293     -0.202982
O       3.70879      1.89246     15.74952         2.181942     -0.301702      0.401270
O       3.87730     13.51842      2.72374         0.071185     -0.278779      0.026549
O       3.91586     13.35114     15.72516        -2.497076      0.023217      0.458602
O       0.02301      1.91413      2.72272        -0.121910     -0.104945      0.094230
O       0.02773      1.78701     15.71617        -1.592530      0.324700      0.352847
O       0.03061     13.48195      2.74797        -0.346579     -0.581120     -0.057763
O      15.35347     13.38127     15.74938        -0.095337     -0.033419      0.033351
O       3.84988      1.93793      7.03719         0.044841     -0.304926      0.311965
O       3.82558     13.47445      7.02573        -0.544723     -0.110470      0.284420
O       0.01084      1.97691      6.97931        -0.904647      0.151175      0.540157
O      15.25690     13.40261      7.01452         1.124434      0.339065      0.438593
O       3.83934      1.94344     11.47084        -0.710358      0.356960     -0.542660
O       3.75257     13.46999     11.36031         0.767357     -0.171382      0.261478
O       0.00192      1.83863     11.48682        -0.101340     -0.107332     -0.058428
O      15.34087     13.38202     11.44418        -0.581917      0.277190     -0.074805
O       3.74202      5.87932      2.73357         1.327718     -0.453241      0.359696
O       3.74714      5.60343     15.76700         0.418388      0.563574     -0.088539
O      15.28458      5.68902      2.71400         0.505110      0.217936      0.038867
O      15.29830      5.77938     15.85107         0.778309     -0.494790     -0.093502
O       3.79486      5.76972      7.19887        -0.017651     -0.181454     -0.720656
O      15.27639      5.75186      7.12275         1.077386     -0.290262      0.030405
O       3.87282      5.81279     11.47589        -0.244095     -0.972393     -0.557348
O      15.30007      5.76609     11.43251        -0.442481     -0.275649      0.032840
O       3.83066      9.44505      2.74129        -1.236921     -0.037228      0.093645
O       3.79730      9.58223     15.82288        -0.623887     -0.183054     -0.149128
O      15.35521      9.72499      2.73054        -0.862682     -0.511803     -0.011938
O       0.01500      9.48018     15.83155        -0.699939      0.164393     -0.139003
O       3.77618      9.65660      6.99289        -0.500701     -0.193083      0.377696
O      15.29254      9.52357      7.02082         0.532163      0.563502      0.040565
O       3.76384      9.47598     11.44105         0.884273      0.339443     -0.218331
O      15.34795      9.55345     11.42224        -1.240406     -0.059274      0.340225
O       7.75896      1.96424      2.55005        -1.543965     -0.053060      0.592675
O       7.59738      1.78386     15.83384        -0.265258      0.561287      0.143812
O       7.73730     13.25600      2.71047        -1.368629      0.456726      0.018688
O       7.59092     13.42818     15.75638         1.962082     -0.097399      0.490118
O       7.70405      1.85261      7.08246        -0.894982      0.357608     -0.087659
O       7.67220     13.38558      7.04092         0.021965     -0.026056      0.337393
O       7.71619      1.75363     11.35150        -0.572977      0.287140      0.082204
O       7.57563     13.53790     11.48173         0.511433     -0.262008     -0.611629
O       7.64853      5.55992      2.70035         0.088863      0.717733      0.097414
O       7.60611      5.75842     15.71583         0.298311     -0.515284      0.588047
O       7.68550      5.83940      7.05543        -0.700457     -0.220749     -0.277053
O       7.69457      5.84105     11.43507        -0.803853     -0.419426     -0.045602
O       7.67415      9.74967      2.69772        -0.489843     -0.609133      0.221327
O       7.58828      9.43916     15.75200         1.032337      0.556183      0.202476
O       7.58533      9.60172      7.15191         0.604420     -0.381389     -0.159117
O       7.60877      9.51798     11.51300        -0.334023      0.512786     -0.516937
O      11.54453      1.83977      2.63649        -0.697771     -0.020318      0.525032
O      11.43320      1.81854     15.71540         1.637298      0.441750      0.328022
O      11.56912     13.39556      2.64735        -0.353811      0.020745      0.416075
O      11.45377     13.41551     15.86460         0.844707     -0.057533      0.113511
O      11.45013      1.96721      7.06003        -0.141305     -0.292317      0.095491
O      11.57441     13.46255      7.02699        -1.337688     -0.244343     -0.028666
O      11.52357      1.89815     11.30550         0.139456      0.319846      0.609685
O      11.50569     13.34123     11.45440        -0.038773      0.167598     -0.367774
O      11.50349      5.86843      2.62603        -0.035631     -0.233732      0.421166
O      11.51636      5.50790     15.76783        -0.964961      0.614763      0.235171
O      11.48591      5.70583      7.06654        -0.176252      0.195779     -0.116879
O      11.46636      5.69379     11.41300         0.358522      0.074397      0.513452
O      11.46746      9.50399      2.72773         0.285511      0.294452      0.007207
O      11.40712      9.47942     15.74032         0.269171      0.665133      0.156192
O      11.47568      9.57894      7.01553         0.090691     -0.022280      0.308944
O      11.50032      9.60998     11.47408        -0.273764     -0.232016      0.211144
O       1.97503      3.80724      2.69382        -0.274141     -0.299289      0.183202
O       1.80735      3.74248     15.76217        -0.242116      1.109803      0.190397
O       1.93942     15.31631      2.81188        -0.166348      0.632910     -0.094608
O       1.91570     15.30543     15.75456        -0.012953     -0.967180     -0.027448
O      13.39784      3.82930      2.78122        -0.247069      0.218700     -0.329480
O      13.40070      3.79580     15.84805         0.510973     -1.608053      0.071051
O      13.46265     15.29923      2.66414        -0.060777      0.442170      0.428283
O      13.45664     15.31293     15.83666        -0.350482      0.351415     -0.011230
O       1.90315      3.90296      7.18168         0.194739     -0.375265     -0.140665
O       1.79988     15.35994      7.07263         0.413555      0.232858      0.221005
O      13.31384      3.84016      6.98840         0.322229     -0.803729      0.605077
O      13.37795      0.03308      7.03864         0.117308     -0.330826      0.088154
O       1.78665      3.84669     11.35606         0.479027     -1.059780      0.153309
O       1.86133     15.31840     11.45798         0.148838      0.596149     -0.009134
O      13.47805      3.76570     11.29433        -0.325573      0.744556      0.557081
O      13.38642     15.27756     11.32100         0.114568      0.589842      0.395567
O       1.76789      7.58805      2.66053        -0.186220      1.622804      0.485244
O       1.90750      7.58434     15.87583        -0.093811      0.482867     -0.745750
O      13.46936      7.81985      2.76833         0.318294     -1.922764     -0.136119
O      13.29287      7.60963     15.78383         0.208888      0.295630     -0.018460
O       1.84380      7.71986      7.08684         0.447983     -0.610392     -0.356410
O      13.43012      7.65722      6.91404        -0.616667      0.005762      0.515970
O       1.80896      7.58252     11.49666         0.373310      0.334309     -0.017961
O      13.40192      7.65831     11.50013        -0.514064     -0.128171      0.029101
O       1.99765     11.49575      2.79138        -0.110080      0.213824     -0.245100
O       1.89118     11.44627     15.71019        -0.087162      0.322559      0.314123
O      13.43082     11.47386      2.68872        -0.051846      0.400646      0.205723
O      13.43537     11.44458     15.78777        -0.299737      0.780283      0.349765
O       1.79849     11.55845      7.11920         0.226191     -0.500547     -0.133203
O      13.42792     11.46630      7.19557         0.141075      0.386525     -0.794586
O       1.88162     11.41949     11.36613         0.264925      1.410514      0.200596
O      13.43890     11.50895     11.28884        -0.015581     -0.149368      0.183708
O       5.75448      3.77566      2.66816        -0.381654      0.251072      0.211028
O       5.60351      3.84860     15.86753         0.769805     -1.088649      0.003501
O       5.90477     15.33535      2.70949        -0.194370     -0.174838     -0.207992
O       5.77648     15.26869     15.86596        -0.850318      1.772984     -0.000994
O       5.73295      3.81379      6.96466         0.088815      0.084236      0.343720
O       5.81203     15.28026      7.02098        -0.286473      1.247608      0.270814
O       5.81553      3.81782     11.36418        -0.026457      0.361352      0.188785
O       5.59267      0.10799     11.45284         0.685635     -1.435098     -0.330807
O       5.82147      7.68291      2.80230         0.119314     -0.179740      0.085984
O       5.73819      7.60321     15.76502        -0.774620      0.326847      0.068217
O       5.66087      7.68015      7.03670        -0.105198     -0.600302     -0.111835
O       5.66592      7.66421     11.52784         0.869961     -0.163866     -0.761434
O       5.67307     11.42912      2.77890        -0.086628      1.142574     -0.517493
O       5.76262     11.47426     15.70689         0.136802     -0.178738      0.540981
O       5.72252     11.47586      7.06701        -0.303153      0.447004      0.463244
O       5.62119     11.51879     11.37023         0.265471      0.003146     -0.004580
O       9.65880      3.77517      2.70291         0.274223      0.590251     -0.002557
O       9.44677      3.74540     15.93562         0.265939      0.252153     -0.006733
O       9.61120     15.25940      2.69196        -0.067768      0.511580      0.253895
O       9.58131     15.34543     15.84483        -0.191431     -0.754963      0.045615
O       9.43664      3.90164      6.93203         0.618011     -0.655216     -0.091115
O       9.48873     15.34768      6.90634         0.673805     -0.020314      0.676007
O       9.52235      3.79742     11.32672         0.176131      0.038817      0.576333
O       9.75651     15.34599     11.38897        -0.606502     -0.412177     -0.046290
O       9.38677      7.68870      2.75131         0.603576     -0.795891     -0.424139
O       9.58651      7.55838     15.74680         0.090017      0.754995      0.117209
O       9.61017      7.62562      7.13043        -0.064133      0.486499      0.088667
O       9.53206      7.70171     11.39395         0.665196     -0.900377      0.539139
O       9.65389     11.47047      2.68200         0.454630      0.086027      0.449450
O       9.52643     11.51639     15.78109        -0.023195     -1.008829      0.223372
O       9.55739     11.46477      7.20106         0.325673      0.535075     -0.719586
O       9.53139     11.50021     11.38515        -0.265225      0.472379      0.459084
