  # total energy = -7881.05327474 
CRSYTAL
PRIMVEC
    15.3600000000000000    0.0000000000000000    0.0000000000000000
     0.0000000000000000   15.3600000000000000    0.0000000000000000
     0.0000000000000000    0.0000000000000000    17.440000000000000
PRESSURE
2.21659 2.26369 -1.19596 0.211048 0.339436 -0.007117
PRIMCOORD
320 1
Pb       3.84544      3.74685      4.30014        -0.123150      0.327193      0.705962
Pb       3.75123      3.76527     17.40730         0.784506      0.108576      0.697062
Pb       3.78270     15.27870      4.32985        -0.110233      0.123730      0.759093
Pb       3.69131     15.26940     17.29782         0.690030      0.149177      0.740078
Pb       0.04774      3.73282      4.24792         0.176446      0.541053      1.465751
Pb       0.03802      3.83985     17.37619         0.013872     -0.108800      0.690270
Pb       0.02470     15.34169      4.26441         0.014773     -0.178647      1.386558
Pb      15.34446     15.28609     17.37380        -0.440994      0.211316      0.606357
Pb       3.75242      3.78412      8.75138         0.431705      0.351326     -0.160191
Pb       3.84853      0.03536      8.54958        -0.158622      0.019872      0.715906
Pb       0.00634      3.92677      8.71443        -0.411806      0.007001     -0.149342
Pb      15.22190     15.35443      8.71457         0.644155      0.194036      0.516155
Pb       3.78438      3.79907     13.00134         0.542267      0.297450      0.329422
Pb       3.76613      0.07070     12.92911         0.481912     -0.680221      0.937477
Pb       0.03614      3.80266     13.04417         0.258292     -0.280826      0.790514
Pb      15.31157     15.27681     13.05031         0.609025      0.191186      0.300576
Pb       3.81281      7.65211      4.34125         0.042389     -0.196029     -0.083546
Pb       3.82196      7.56067     17.32009        -0.274312      0.281631      0.410124
Pb      15.35655      7.79029      4.28885         0.129508     -0.175145      0.507583
Pb      15.23458      7.56431     17.39549         0.231266      0.719139      0.438106
Pb       3.76458      7.73609      8.65230         0.359828     -0.091609      0.594705
Pb      15.35781      7.68516      8.65407        -0.226717      0.264311      0.339618
Pb       3.82302      7.59032     12.93930         0.499283      0.266011      0.782266
Pb      15.30286      7.57235     13.06401         0.382897      0.407807      0.683258
Pb       3.87890     11.53709      4.32330        -0.375941     -0.232682      0.856395
Pb       3.75969     11.60739     17.35351         0.285132     -0.751887      0.330236
Pb      15.23703     11.49440      4.37154         0.553676     -0.355414      0.037834
Pb      15.28497     11.55640     17.32295        -0.064639     -0.519830      1.095306
Pb       3.88659     11.48928      8.66918        -0.346182     -0.023100      0.237487
Pb      15.27067     11.50886      8.71514         0.450783     -0.348329      0.219310
Pb       3.81562     11.43744     12.99683         0.292472      0.370370      0.664232
Pb       0.08368     11.52500     12.98913        -0.353745      0.002289      0.745405
Pb       7.68921      3.72479      4.27749         0.003634      0.852413      0.458515
Pb       7.54900      3.77249      0.02910         0.144563      0.412724      0.635479
Pb       7.71534     15.24368      4.37353        -0.337672      0.366371      0.780945
Pb       7.67073      0.00486     17.40518         0.140984     -0.721610      0.225384
Pb       7.65382      3.87333      8.59615        -0.121267      0.056744      1.098004
Pb       7.63302      0.02313      8.68534         0.341950      0.080243      0.354036
Pb       7.76857      3.91099     12.96025        -0.297820     -0.169918      1.077207
Pb       7.58255      0.09392     12.96136        -0.100075     -0.338729      1.085235
Pb       7.75951      7.63051      4.33859        -0.562084     -0.341066      0.361171
Pb       7.53972      7.74546     17.37485         0.348081      0.069460      0.476706
Pb       7.73593      7.61857      8.66295        -0.402247      0.197958      0.969018
Pb       7.68037      7.71734     13.00306        -0.176578     -0.379215      0.289086
Pb       7.67070     11.49523      4.32443         0.228637     -0.209690      0.903430
Pb       7.64770     11.46257     17.40133        -0.121214      0.123673     -0.129141
Pb       7.62833     11.58560      8.61475         0.008581     -0.219934      1.245896
Pb       7.62951     11.46571     12.92755         0.434111      0.168253      1.196197
Pb      11.42082      3.81780      4.22639         0.198200     -0.273611      1.069430
Pb      11.60873      3.81628     17.43716        -0.684085     -0.091827      0.563916
Pb      11.53875     15.21723      4.37011         0.050622      0.722896      0.540426
Pb      11.38681     15.29633      0.08683         0.471734     -0.168036     -0.038501
Pb      11.37012      3.84620      8.62990         1.477250     -0.149415      1.150394
Pb      11.49346      0.05642      8.67843        -0.420711     -0.189095      0.556002
Pb      11.59183      3.75767     13.06034        -0.914386     -0.276550      1.001242
Pb      11.57748     15.35541     12.97516        -0.940810     -0.096425      1.569840
Pb      11.45703      7.62301      4.25141         0.591764      0.143000      1.301944
Pb      11.52411      7.68461     17.40049        -0.589935      0.611498      0.662952
Pb      11.52665      7.70589      8.64277         0.047517      0.228823      0.594028
Pb      11.47643      7.58878     13.10236        -0.133648      0.597005      0.638720
Pb      11.53825     11.51405      4.20948        -0.500029      0.156067      0.948758
Pb      11.40964     11.45465     17.38432        -0.113667      0.251181      0.906089
Pb      11.58690     11.50545      8.54929        -0.038481      0.105088      1.736816
Pb      11.57509     11.49662     13.03942        -0.490374      0.053016      0.337638
Ti       2.02291      1.83577      2.30895        -0.746547      0.331946     -0.556407
Ti       1.90809      1.91252     15.41499         0.293928     -0.461469     -1.166814
Ti       1.90125     13.36605      2.34711        -0.238620     -0.255057     -1.578708
Ti       1.82467     13.40231     15.37351         0.583487     -0.271925      1.072989
Ti      13.53073      1.96331      2.40165        -0.632830     -1.238124     -0.737516
Ti      13.46739      1.90129     15.43412        -0.631784     -1.064612      0.794571
Ti      13.52106     13.50453      2.32230        -1.529437     -0.541973     -1.143220
Ti      13.34788     13.38202     15.48434        -0.509588      1.081190     -0.963937
Ti       1.87685      1.92785      6.75288         0.383989      0.291503      0.297729
Ti       1.87995     13.45369      6.75681        -0.436898     -0.133292     -0.853088
Ti      13.42116      1.92808      6.67770         0.808447      0.997021     -1.410236
Ti      13.39244     13.49625      6.75036         0.588863     -0.571007     -1.070072
Ti       1.92832      1.94478     10.99849        -0.166239     -0.851144     -0.655998
Ti       1.90214     13.42390     10.95135         0.435613      0.287527      1.078983
Ti      13.49612      1.91954     11.05638        -0.284176     -0.745895      0.029441
Ti      13.40460     13.43188     11.14871         0.202618     -0.867687     -0.923474
Ti       1.88911      5.72474      2.37091         0.126881      0.346867     -0.737952
Ti       1.88838      5.74657     15.39969         0.724503      0.288409     -1.201591
Ti      13.38582      5.76076      2.43817         0.904488      0.301836     -0.023165
Ti      13.32577      5.68663     15.43998         0.560162      1.064273     -0.906884
Ti       1.93132      5.81881      6.78054        -1.161131     -0.875992     -1.357966
Ti      13.37909      5.76390      6.61496         1.126685      0.276105     -0.679044
Ti       1.89347      5.74161     11.05536         0.377652      0.399076     -0.975012
Ti      13.47359      5.65318     11.17117        -0.282504      1.038798     -0.962170
Ti       1.98483      9.64381      2.26976        -1.356207     -1.116323     -0.301728
Ti       1.80244      9.55964     15.43149         0.395913      0.616572     -0.867250
Ti      13.37495      9.64938      2.31845         1.396174     -0.680707     -1.666791
Ti      13.39426      9.58618     15.38014        -0.193225     -0.423011      0.481393
Ti       1.97508      9.64905      6.64341        -1.919740      0.519225     -0.073921
Ti      13.44167      9.61129      6.70091         0.785567     -0.444251     -0.736961
Ti       1.86968      9.56511     11.09849         0.778078      0.180045     -2.346199
Ti      13.48408      9.52141     11.16580        -1.094164      0.898405     -0.753323
Ti       5.82430      1.80633      2.46014         0.218726      1.184638     -1.587577
Ti       5.81752      1.85297     15.49228        -0.825556     -0.106377      1.392068
Ti       5.70860     13.42258      2.42841         0.939918     -0.487135      0.726142
Ti       5.77147     13.39146     15.36844        -0.233350      0.038899     -2.025535
Ti       5.79273      1.99583      6.71532        -0.298798     -0.535762     -0.279339
Ti       5.71152     13.44700      6.74405         0.112084     -0.010139     -1.608989
Ti       5.74036      1.97335     10.96114         1.038489      0.456625     -0.692697
Ti       5.75802     13.46646     11.03587        -0.735374     -0.081263     -0.336243
Ti       5.67240      5.69255      2.34443         0.440666     -0.100904     -0.644998
Ti       5.75402      5.66038     15.37731        -0.347425      0.536056     -1.055922
Ti       5.70032      5.78705      6.66103         0.483384     -0.690174     -0.228066
Ti       5.74292      5.74438     11.06381         1.448906      0.385177     -1.319545
Ti       5.75801      9.58042      2.40313        -0.105979     -0.525956     -0.598677
Ti       5.61221      9.53146     15.36004         0.618281      0.890461     -1.370518
Ti       5.79962      9.53549      6.71050         0.293766      0.605408     -1.440783
Ti       5.76822      9.62399     11.02779        -0.005282     -1.085116     -0.328383
Ti       9.67804      1.85586      2.37820        -0.233936     -0.436645     -0.396549
Ti       9.62835      1.96102     15.55365         0.639808     -0.299053     -1.273933
Ti       9.55245     13.38835      2.43704         0.332004      0.092457     -1.256224
Ti       9.63397     13.41518     15.32665        -0.578850      0.555465      0.046331
Ti       9.61728      1.91630      6.66202         0.094854     -0.549961     -0.359558
Ti       9.53354     13.42413      6.74005         0.729294      0.606555     -1.007115
Ti       9.60566      1.89607     11.09116         0.007225      0.108151     -1.331941
Ti       9.58205     13.48361     11.07480        -0.347772     -0.272523     -0.272799
Ti       9.55608      5.74961      2.30372        -0.625897     -0.503512      0.500086
Ti       9.50691      5.76148     15.57459         0.260423      0.336276     -0.490792
Ti       9.59797      5.75010      6.77114        -0.525476      0.550365     -2.755546
Ti       9.72360      5.74845     11.10004        -2.105671      0.146839      0.219091
Ti       9.59253      9.49249      2.34476         0.047178      1.325787     -2.319187
Ti       9.54366      9.62812     15.41801        -0.414765     -0.638119      0.177856
Ti       9.55574      9.66685      6.76256         0.396566     -0.687178     -0.669064
Ti       9.62912      9.61731     11.12165         0.363076     -0.372876     -1.044437
O       2.01637      1.87862      0.52165        -0.506487     -0.163364      1.042444
O       1.79423      1.90266     13.54760         0.742416      0.123472      2.120589
O       1.95716     13.37653      0.49139        -0.237205      0.212117      2.062771
O       1.84527     13.40099     13.64880         0.001741      0.084719     -0.465946
O      13.70763      1.84850      0.60682        -0.689706      0.515224      1.437769
O      13.43107      1.96183     13.68301         0.286786     -0.227883      0.214085
O      13.37343     13.53896      0.50644         0.486327     -0.219294      1.514064
O      13.36127     13.41673     13.64586         0.061759      0.031033      1.207746
O       1.92566      1.95251      4.98209         0.006172     -0.075116      0.426058
O       1.85852     13.48768      4.95404         0.061614     -0.275307      0.698976
O      13.43936      1.88801      4.84774         0.161574      0.273781      1.857259
O      13.43157     13.46905      4.95768         0.002362     -0.175884      1.266267
O       2.00322      1.91053      9.20931        -0.058724      0.074795      1.033270
O       1.95953     13.44404      9.22752         0.068236      0.059161     -0.075752
O      13.45318      1.84456      9.32029        -0.114671      0.226461      0.079292
O      13.48518     13.35068      9.36725        -0.358697      0.395949      0.555873
O       1.89532      5.74539      0.51840         0.038031      0.074912      1.501648
O       1.95074      5.81524     13.58089         0.059980     -0.660085      1.223030
O      13.51681      5.66949      0.65710        -0.125156      0.352183      0.349046
O      13.37673      5.63963     13.64520         0.102043      0.342514      0.981440
O       1.98794      5.71365      5.00558        -0.224327      0.179570      0.731056
O      13.35147      5.80876      4.81340         0.101345     -0.197135      1.269635
O       1.74442      5.88487      9.24508         0.723845     -0.476572      1.286220
O      13.51939      5.70951      9.42519        -0.371590     -0.150572      0.680863
O       1.87085      9.52170      0.48904         0.207507      0.162335      0.528857
O       1.76800      9.62411     13.63341         0.181690      0.051126      0.347138
O      13.44531      9.55903      0.47425        -0.216075      0.147850      2.269392
O      13.42235      9.44377     13.59482        -0.022583      0.528552      0.914399
O       1.68954      9.62392      4.87427         0.959430      0.080103      1.441233
O      13.50077      9.58678      4.90745        -0.153007      0.252681      0.537283
O       1.92477      9.65048      9.21952         0.247303     -0.385793      2.292763
O      13.49974      9.78457      9.40979        -0.271158     -0.601935      0.447475
O       5.93727      1.91043      0.67099        -0.284449     -0.412520      0.724312
O       5.76813      1.83576     13.81736        -0.089106      0.064877     -2.218336
O       5.79419     13.29704      0.72298        -0.214656      0.136482     -0.663534
O       5.61402     13.50060     13.50994         0.565511     -0.262496      2.041069
O       5.76421      1.93185      4.94930        -0.020708      0.114755     -0.073147
O       5.73880     13.45764      4.89991        -0.346307     -0.074587      1.627860
O       5.87981      2.01408      9.18246        -0.324437     -0.141413      0.706327
O       5.82833     13.40954      9.19581        -0.513775     -0.000162      1.510304
O       5.61290      5.54320      0.53791         0.067529      0.705850      1.393948
O       5.73712      5.87062     13.55283        -0.005964     -0.765931      1.628852
O       5.78629      5.74363      4.87170        -0.314425      0.033728      1.186600
O       5.83565      5.84712      9.26040        -0.160319     -0.530538      0.809601
O       5.74288      9.67057      0.61397         0.001041     -0.238242      1.335760
O       5.68290      9.56329     13.51751         0.143413     -0.137063      1.753120
O       5.93328      9.51000      4.89148        -0.563458      0.031561      1.396108
O       5.73507      9.59625      9.22580        -0.170968      0.149791      0.818656
O       9.81288      1.77525      0.60233        -0.992271      0.291447      0.388731
O       9.67653      2.06036     13.76093        -0.362951     -0.356961      1.102163
O       9.64185     13.42470      0.65002        -0.404704      0.079489      1.013488
O       9.74442     13.44626     13.56797        -0.439564     -0.158562      0.411214
O       9.64469      1.99486      4.88842        -0.003490     -0.146933      1.006436
O       9.66467     13.31624      4.94973        -0.531720      0.440268      0.903064
O       9.71587      1.78927      9.25797        -0.324081      0.508333      1.323198
O       9.52766     13.74015      9.31296         0.073675     -0.833056      0.737264
O       9.61191      5.77417      0.59041         0.035379      0.172523     -0.363437
O       9.65075      5.68386     13.80242        -0.364748      0.257092      0.689870
O       9.51015      5.75187      4.91133         0.443612     -0.019579      1.726054
O       9.71175      5.75403      9.33179         0.106895      0.033836     -0.205059
O       9.57444      9.52041      0.48929        -0.220172      0.319573      1.987935
O       9.55407      9.50968     13.65754         0.045764      0.452039      0.280900
O       9.57569      9.74299      4.99216         0.085611     -0.708225      1.026292
O       9.62120      9.37981      9.34752         0.147175      0.606007      0.462864
O       3.83135      1.84376      2.70575         0.291964     -0.241791      0.248106
O       3.84064      1.87530     15.97235        -0.116033     -0.539633     -1.027257
O       3.76698     13.37244      2.88653         0.534321      0.075139     -0.691511
O       3.84134     13.37965     15.91330        -0.455859      0.363564     -0.969575
O       0.05434      1.86148      2.87043        -0.023931      0.226571     -0.968381
O       0.05515      1.92218     15.95651        -0.244969      0.101308     -0.989945
O      15.35771     13.40602      2.70332         0.250663     -0.149068     -0.105683
O      15.24527     13.42110     15.86024         0.222468     -0.042377     -0.562798
O       3.91070      2.04738      7.15371        -0.755811     -0.420199     -0.216440
O       3.82786     13.37684      7.14106         0.307441      0.140031     -0.265125
O       0.07059      1.86164      7.26094        -1.085034      0.396507     -0.817141
O      15.30719     13.53470      7.31932        -0.118652     -0.376933     -1.160424
O       3.88579      1.88236     11.35328        -0.561541      0.588409      0.251910
O       3.80661     13.34312     11.56882        -0.027286      0.528127     -1.256180
O       0.03952      1.98027     11.42553        -0.426417     -0.542715     -0.200191
O       0.01725     13.47161     11.47337        -0.089134      0.187981     -0.166192
O       3.76708      5.68094      2.89723         0.381364      0.311990     -0.692392
O       3.82014      5.68353     15.82282         0.032910      0.208785     -0.253622
O       0.00062      5.64234      2.91243         0.270062      0.698324     -1.161444
O       0.04786      5.74328     15.77222        -0.790728     -0.191115     -0.006513
O       3.80145      5.67494      7.08704         0.850128      0.664741      0.265594
O      15.30355      5.78907      7.13671         0.308843      0.275279     -0.254870
O       3.90387      5.71641     11.39208        -1.880195      0.049047      0.041677
O       0.04961      5.72942     11.60532        -0.844538     -0.305863     -0.603677
O       3.82119      9.68666      2.83270         0.887206     -0.454499     -0.351170
O       3.75219      9.62499     15.73711         0.017063      0.055641      0.143476
O       0.01712      9.59070      2.80370        -0.802028      0.300918     -0.759019
O      15.25026      9.60813     15.84425         0.081590      0.001008     -0.340611
O       3.87196      9.63279      7.08847        -0.170965      0.074158     -0.466879
O      15.33273      9.61910      7.22030         0.367803      0.239042     -0.699326
O       3.83958      9.64256     11.47900        -0.589885     -0.475887     -0.613346
O       0.02274      9.53630     11.50774        -0.331793     -0.198503     -0.045643
O       7.78910      1.91524      2.89879        -1.486527     -0.510740     -0.685042
O       7.72333      1.89067     16.04064         0.254886     -0.031876     -0.842160
O       7.63638     13.43171      2.92500        -0.394156     -0.145730     -0.722319
O       7.64223     13.40055     15.76849         0.466576      0.017255     -0.092892
O       7.74200      1.95941      7.00512         0.048024      0.055663      0.138621
O       7.65244     13.53426      7.20645         0.282224     -0.507035     -0.806095
O       7.65216      2.02470     11.51019         0.261229     -0.269730     -0.348116
O       7.54782     13.35878     11.46234         1.303218      0.476844     -0.119407
O       7.63984      5.86658      2.74490         0.169611     -0.677772     -0.519870
O       7.60170      5.77775     16.01913        -0.077418     -0.261233     -0.905738
O       7.68084      5.72592      7.10000         0.160000      0.160006     -0.078585
O       7.78852      5.68769     11.51160        -0.174421      0.535860     -0.417077
O       7.79974      9.46704      2.80442        -1.949964     -0.006943     -0.341669
O       7.54288      9.63365     15.84503         0.445268     -0.323941     -0.307110
O       7.67183      9.59330      7.22408         0.445085     -0.214940     -0.479412
O       7.69282      9.57025     11.41972        -0.315193      0.037477      0.122903
O      11.54129      1.75043      2.75554         0.337480      0.456484     -0.136088
O      11.56599      1.97184     15.99965         0.404498      0.186142     -0.736155
O      11.48595     13.56653      2.86977        -0.043881     -1.212189     -0.950258
O      11.43901     13.41044     15.98056         0.760093     -0.088416     -0.798436
O      11.60561      1.92786      7.11036        -0.948782      0.209874     -0.152185
O      11.52478     13.38693      7.16152        -0.061890      0.559762     -0.327540
O      11.49532      1.78924     11.47896         0.441927      0.728820     -0.399932
O      11.46842     13.52955     11.41409         0.356953     -0.234878     -0.159791
O      11.50065      5.70970      2.91936         0.056681      0.217482     -1.447928
O      11.48608      5.85070     15.98437         0.564555     -0.842163     -0.763842
O      11.49782      5.76752      7.07186         0.604136      0.158601      0.151991
O      11.46280      5.69691     11.71613         1.738338     -0.092470     -1.061095
O      11.50681      9.54628      2.76768         0.287859      0.709534     -0.251145
O      11.42666      9.62209     15.92539         0.732175     -0.657132     -1.040824
O      11.53039      9.65265      7.20295        -0.461069     -0.410997     -0.630247
O      11.50647      9.70157     11.53139         0.735823     -0.786411     -0.187367
O       2.01757      3.77927      2.76552        -0.761874     -0.070412     -0.512663
O       2.08367      3.76580     15.84994        -1.483263      0.483395     -0.923093
O       1.85337     15.25694      2.79576         0.666909      0.769888     -0.669021
O       1.82521     15.27133     15.80919         0.472891      1.015877     -0.312711
O      13.41345      3.80336      2.79015        -0.023775     -0.088413     -0.423232
O      13.49270      3.87773     15.90410        -0.218050     -0.566590     -0.251740
O      13.44937     15.26356      2.94821         0.324421      1.163221     -1.039640
O      13.38399     15.35218     15.87052         0.360562      0.454968     -0.595899
O       1.88000      3.89597      7.32255         0.052229     -0.484959     -0.880560
O       1.98030     15.33517      7.10452         0.175669      0.962305      0.019122
O      13.51989      3.94130      7.16971        -0.520570     -1.212546     -0.581346
O      13.43159      0.08693      7.12473         0.042333     -1.051049     -0.132424
O       1.91888      3.83951     11.51566         0.347282     -0.050514     -0.560890
O       1.98890      0.06239     11.49644        -0.735780     -0.813754     -0.837048
O      13.50655      3.76153     11.61383        -0.565486      0.274271     -0.836956
O      13.42457     15.34519     11.64838         0.783310      0.301960     -1.205628
O       2.00873      7.70730      2.83657        -0.456448     -0.857832     -0.687682
O       1.90960      7.71870     15.64364        -0.087438     -1.341530      0.644201
O      13.41619      7.73132      2.74346        -0.012140     -0.834114     -0.352610
O      13.41309      7.65625     15.92425         0.044529     -0.282643     -0.839191
O       1.88115      7.78139      7.12835         0.508956     -0.689166     -0.352281
O      13.50152      7.74462      7.17424        -0.864068     -0.847988     -0.442323
O       1.92933      7.59158     11.47939        -0.084106      0.995909     -0.323263
O      13.39198      7.59595     11.48674         0.091975      0.180862     -0.010136
O       1.90132     11.45344      2.72945        -0.031242      1.407252     -0.032308
O       1.74565     11.56779     15.89509         0.707252     -0.813522     -0.679139
O      13.38500     11.58167      2.76340         0.153068     -0.594588     -0.445710
O      13.26408     11.49627     15.93623         0.777422     -0.161739     -1.084353
O       1.85042     11.59156      7.07456         0.290695     -1.140250     -0.022426
O      13.46988     11.49438      7.08448        -0.068752      1.098465     -0.001143
O       1.81038     11.49623     11.41675         0.398251      0.058721     -0.234593
O      13.44296     11.51343     11.63410         0.237083      0.329384     -0.551875
O       5.71491      3.74492      2.76954         0.326305      0.556710      0.118453
O       5.80618      3.77563     15.81374        -0.180692      0.430724     -0.135139
O       5.68393     15.33747      2.81231         0.379319     -0.710441     -0.063390
O       5.79380     15.28980     15.86782        -0.172562     -0.047199      0.155016
O       5.81083      3.86798      7.25350        -0.295970      0.265588     -1.066997
O       5.73077     15.34812      7.09853         0.001022      0.551005     -0.181154
O       5.70016      3.86481     11.50979         0.261344     -0.928608     -0.182771
O       5.85359      0.08740     11.35819        -0.607211     -1.010662     -0.160767
O       5.64796      7.59075      2.69886        -0.099036      1.010353     -0.066399
O       5.65106      7.60373     15.81907         0.194589      0.642858     -0.136188
O       5.75868      7.66864      7.06948        -0.155768     -0.232827     -0.057164
O       5.79985      7.61722     11.40494        -0.172312      1.192457      0.071958
O       5.80206     11.46140      2.95692        -0.284010      0.089501     -1.043703
O       5.70343     11.47766     15.84718        -0.044501      0.299860     -0.423073
O       5.86017     11.50728      7.13651        -0.544247      0.048439     -0.462059
O       5.81796     11.45643     11.57599        -0.939471      0.629165     -1.273191
O       9.57838      3.80837      2.63542         0.312641      0.074785      0.198298
O       9.59855      3.90083     16.01341         0.051851     -0.816806     -0.126828
O       9.40503     15.29161      2.86783         1.185033      0.405750     -0.573252
O       9.70251     15.32464     15.84916        -0.711587      0.518968     -0.190902
O       9.73674      3.84438      7.15764        -1.085213     -0.453088     -0.747035
O       9.60721     15.33202      7.15910         0.304864      0.818417     -0.821864
O       9.63316      3.80329     11.58065         0.538757     -0.122711     -0.902712
O       9.44519      0.01791     11.61374         0.449080      0.077518     -0.729868
O       9.72637      7.65222      2.73245        -0.511926     -0.493969      0.002504
O       9.46879      7.72946     15.95681         0.358289     -0.482678     -0.605267
O       9.63520      7.65401      7.21017        -0.089500      0.344391     -0.747313
O       9.66352      7.71657     11.66592        -0.038996     -1.058848     -0.902633
O       9.44044     11.45621      2.77403         1.131768      0.322889     -0.371110
O       9.59788     11.54555     15.84250        -0.337319     -0.506504     -0.310574
O       9.56748     11.56598      7.16088        -0.143909     -0.567033      0.133982
O       9.60259     11.53410     11.47105        -0.230768      0.578964     -0.322730
