  # total energy = -7881.19713225 
CRSYTAL
PRIMVEC
    15.3600000000000000    0.0000000000000000    0.0000000000000000
     0.0000000000000000   15.3600000000000000    0.0000000000000000
     0.0000000000000000    0.0000000000000000    17.440000000000000
PRESSURE
0.475746 0.882549 1.79675 -0.022568 -0.213598 -0.006137
PRIMCOORD
320 1
Pb       3.93138      3.80422      4.39928        -0.182337     -0.022864     -0.909462
Pb       3.89533      3.81199      0.02897         0.332244      0.038497     -0.324057
Pb       3.76794      0.02875      4.34390         0.406927     -0.000724     -0.226516
Pb       3.77377     15.28942     17.35549        -0.329665      0.375527     -0.550692
Pb       0.08435      3.78970      4.36995        -0.367466     -0.152280     -0.750412
Pb       0.06681      3.88498      0.01184        -0.797054     -0.179238     -0.387380
Pb       0.10805      0.03698      4.36797        -0.623186      0.111899     -0.283858
Pb      15.23602      0.06083     17.37366         0.199758     -0.122944     -0.296078
Pb       3.74925      3.79237      8.70777         0.201395      0.337431     -0.529310
Pb       3.77988     15.31979      8.64196         0.327109      0.010734     -0.480401
Pb      15.10398      3.96377      8.64255         0.416956      0.086639      0.174646
Pb      15.22124     15.29676      8.73939         0.340019     -0.156047     -0.197861
Pb       3.91474      3.63637     13.07590        -0.430383      0.676130     -0.849815
Pb       3.77812      0.01245     12.93549        -0.450695     -0.307406     -0.114754
Pb       0.03172      3.78107     13.02571         0.019706     -0.128182      0.093946
Pb      15.28568     15.21830     13.06622         0.266790      0.411879     -0.502905
Pb       3.83851      7.67397      4.32143         0.372820      0.066682      0.038692
Pb       3.81107      7.62518      0.02310         0.246251      0.082266     -0.479364
Pb       0.14263      7.78995      4.30200        -0.224849     -0.611465      0.383296
Pb      15.32598      7.70257      0.04882        -0.355450     -0.211954     -0.696588
Pb       3.77299      7.70888      8.62732         0.128484     -0.000435     -0.307958
Pb      15.29623      7.62717      8.64091        -0.077099      0.241049     -0.054737
Pb       3.88865      7.56041     13.05313        -0.558795      0.303781     -0.579151
Pb      15.32986      7.65302     13.08726         0.133519      0.257308     -0.379650
Pb       3.81114     11.55590      4.28267         0.195093     -0.272538      0.114130
Pb       3.93578     11.60440     17.42193        -0.513060     -0.572146     -0.635866
Pb       0.10945     11.55708      4.32046        -0.939541     -0.359172      0.241572
Pb      15.25505     11.50823     17.37204        -0.226054      0.088934     -0.405291
Pb       3.86907     11.48679      8.64896        -0.237518     -0.256087      0.017383
Pb       0.00487     11.47356      8.72913        -0.819245     -0.268899     -0.393614
Pb       3.92569     11.39464     13.06823        -0.858143      0.055652     -0.231863
Pb       0.18509     11.50808     13.02461        -0.740155     -0.193659     -0.266514
Pb       7.67413      3.78828      4.23951         0.128510      0.151032     -0.570436
Pb       7.70472      3.83270      0.04781        -0.320919     -0.144362     -0.023851
Pb       7.66425     15.33507      4.42403         0.028245     -0.287559     -0.752342
Pb       7.51165      0.03308     17.33222         0.421767      0.134456      0.353825
Pb       7.51249      3.91089      8.72525         0.228221     -0.478403     -0.571009
Pb       7.66832     15.34643      8.78768        -0.487511      0.155834     -0.854161
Pb       7.86457      3.90383     13.02140        -0.647413     -0.204985     -0.074198
Pb       7.69736      0.10130     12.97807         0.118496     -0.001396     -0.087868
Pb       7.73261      7.56566      4.33124        -0.020218      0.097803     -0.076192
Pb       7.58298      7.75439      0.02175        -0.226944      0.060923     -0.632035
Pb       7.73323      7.61170      8.72446         0.047957      0.407126     -1.100717
Pb       7.70787      7.72671     13.08934        -0.566147     -0.207832     -0.081818
Pb       7.64093     11.44790      4.35590        -0.011862      0.296552     -0.709823
Pb       7.66910     11.60756     17.31075         0.034185     -0.698381     -0.441622
Pb       7.64506     11.59514      8.65249         0.444946     -0.490582     -0.438191
Pb       7.78853     11.58217     12.93902        -0.545296     -0.914278      1.184196
Pb      11.46104      3.75689      4.30098         0.154087     -0.171091     -0.279355
Pb      11.69483      3.89803      0.16438        -0.286761     -0.345964     -1.312729
Pb      11.62801     15.29364      4.38435        -0.211937     -0.430406     -0.938815
Pb      11.23635     15.25581      0.03998         0.810738      0.196042     -0.065715
Pb      11.46463      3.86689      8.64484        -0.034300      0.245330     -0.035320
Pb      11.46620      0.05625      8.76366         0.238385     -0.458143     -0.795125
Pb      11.54218      3.72423     13.01498         0.092998      0.633744      0.177314
Pb      11.48499     15.29330     13.10008         0.004503      0.004775     -0.505176
Pb      11.57813      7.52908      4.37150        -1.027411      0.421802     -0.105681
Pb      11.45612      7.71926     17.42849         0.259433     -0.061054     -0.899205
Pb      11.60994      7.72077      8.67006        -0.731665     -0.320473      0.290461
Pb      11.34493      7.57465     13.15739         0.748939      0.116564     -0.624442
Pb      11.52708     11.43685      4.27179        -0.075902      0.998058     -0.785999
Pb      11.40103     11.45135     17.36002         0.241730     -0.036535     -0.148211
Pb      11.50461     11.41719      8.63943         0.259388      0.121556      0.097485
Pb      11.57270     11.49093     13.04472         0.280858     -0.342695     -0.355981
Ti       1.90577      1.92318      2.22267         0.268590     -0.323896      1.691811
Ti       1.91703      1.96468     15.33499        -1.233844     -0.722493      0.581727
Ti       1.89081     13.47128      2.27070        -0.252128     -0.174436      1.359549
Ti       1.81192     13.40960     15.31887        -0.056119      0.157701      1.385058
Ti      13.46012      1.85023      2.29194        -0.036494     -0.034869      0.551171
Ti      13.36149      1.88143     15.36294         0.916016      0.122105      2.235830
Ti      13.51238     13.37157      2.27897        -1.763268      0.315023      0.606247
Ti      13.32550     13.42397     15.36390         0.417365      0.349087      0.857999
Ti       1.83471      1.89748      6.71833         0.233912      0.040680     -0.391925
Ti       1.91560     13.38969      6.71867        -0.319486     -0.019363      1.326172
Ti      13.40965      1.89889      6.62583        -0.418497     -0.119387      0.334809
Ti      13.40944     13.46802      6.61704         0.153445     -1.267057      0.340536
Ti       1.89330      1.92786     10.86699        -0.760092     -0.698604      1.865289
Ti       1.95872     13.44276     10.91195        -1.101059     -0.305167      0.229718
Ti      13.41960      1.89819     11.02685         0.797188      0.253570      0.641124
Ti      13.36070     13.41807     10.97790         0.914255     -0.284988      0.414752
Ti       1.91466      5.73208      2.36096         0.111612     -0.168556      1.762473
Ti       1.90655      5.73936     15.37332        -0.587055      0.338596      0.730964
Ti      13.38930      5.74532      2.28005         1.733158     -1.141993     -0.216202
Ti      13.42936      5.71569     15.32841        -0.590917     -0.107975      1.374076
Ti       1.90589      5.66570      6.49725        -0.739979      1.517196      2.335654
Ti      13.34370      5.80805      6.56188        -0.090192     -0.071973      2.258821
Ti       1.90634      5.71626     11.04798        -0.342975      0.044659     -0.217898
Ti      13.42665      5.78789     11.20609        -0.369952     -0.031407     -1.398654
Ti       1.90435      9.62758      2.23957        -0.256676     -0.468559      1.271392
Ti       1.80073      9.52861     15.43331         0.573672      0.518798     -0.571139
Ti      13.30500      9.43933      2.31456         0.620056      2.501921     -0.582627
Ti      13.37682      9.53198     15.32265        -0.034700      0.421422      0.485483
Ti       1.84375      9.55294      6.70166        -0.591089      0.009123      1.147204
Ti      13.31168      9.61495      6.47565         1.099035      0.772494      3.093637
Ti       1.74228      9.52765     10.98297         0.663169      0.150498      0.917911
Ti      13.33205      9.57384     11.06309         0.028760     -0.634385      0.824424
Ti       5.74078      1.84560      2.30994        -0.004430      0.531714      0.689882
Ti       5.73514      1.94515     15.30163         0.065882      0.292754      2.796039
Ti       5.71500     13.36298      2.24657         0.851505      0.752091      1.358614
Ti       5.69695     13.48752     15.26912        -0.290212     -0.873732      1.350398
Ti       5.74491      1.87731      6.63812        -0.614332      0.049324      3.408884
Ti       5.83769     13.35812      6.60757        -1.253082      1.135571      0.445563
Ti       5.76618      1.92215     11.01206         0.004930     -0.164891     -0.459222
Ti       5.78710     13.42527     11.06555        -1.155452     -0.050183      0.051413
Ti       5.77753      5.77536      2.28927        -0.059019     -1.130331      0.548120
Ti       5.75627      5.74697     15.35525         0.082501      0.417874      1.589366
Ti       5.73814      5.83115      6.61705         0.175519     -0.437265      2.657757
Ti       5.66942      5.70870     10.95009         0.214772      0.060533      0.276572
Ti       5.71313      9.55142      2.32433         0.015608      0.022155     -0.270362
Ti       5.59611      9.63795     15.35104         1.067273     -0.576020      2.088882
Ti       5.76652      9.63336      6.60666        -0.423141     -1.711110      1.064470
Ti       5.66314      9.58712     11.03504        -0.757581     -0.549380     -1.477138
Ti       9.60109      1.80124      2.37499        -0.721177      0.084432      0.430079
Ti       9.59309      1.91665     15.45589         0.188243      0.486746      0.206227
Ti       9.51492     13.38903      2.26595         0.821223      0.055211      1.164333
Ti       9.50349     13.45432     15.32539        -0.061312     -0.763828      0.619607
Ti       9.52231      1.87170      6.68229         0.612074      0.644887      0.506811
Ti       9.73310     13.40540      6.63742        -0.954386     -0.800423      0.043059
Ti       9.68305      1.89251     10.93120        -1.734523      0.411764      0.984274
Ti       9.52303     13.39144     11.00763         1.849323      0.247645     -1.085626
Ti       9.66923      5.75152      2.22409        -1.418264     -0.467106      1.526651
Ti       9.49604      5.68505     15.47680         0.912066      0.021289      0.737156
Ti       9.58571      5.70787      6.64922        -0.200148      0.976110      0.572354
Ti       9.52880      5.78061     11.06012         1.106118      0.156335     -1.243507
Ti       9.50526      9.54777      2.36054        -0.249841      0.495038     -0.592197
Ti       9.50677      9.45969     15.29259        -0.710332      1.094676      2.065592
Ti       9.55100      9.57645      6.49298        -0.280403     -1.015896      1.692645
Ti       9.50887      9.53805     10.99114         0.823788      0.409176      0.530567
O       1.97657      1.93494      0.50221        -0.049929     -0.105476     -0.671462
O       1.91629      1.98038     13.58177         0.471101      0.127577     -0.509071
O       1.83159     13.58270      0.57430         0.315741     -0.418659     -1.003089
O       1.88820     13.32399     13.57839        -0.014352      0.345990      0.029788
O      13.52613      1.76081      0.53969        -0.423789      0.594766      0.088939
O      13.26974      1.92255     13.64790        -0.089616     -0.049553     -1.338836
O      13.39042     13.47623      0.53708         0.097424     -0.163479     -0.354857
O      13.49179     13.33628     13.62372        -0.529608      0.392579     -0.907954
O       1.90822      1.88332      4.91019        -0.128390      0.197556      0.471565
O       1.92535     13.24386      4.98607        -0.262598      0.483282     -1.036119
O      13.44350      1.88434      4.86814         0.004606      0.291085     -0.170704
O      13.31129     13.35003      4.83911         0.233837      0.187230      0.332876
O       1.95062      1.87883      9.14431        -0.198837      0.000918     -1.094989
O       1.87372     13.48804      9.12421         0.290175     -0.159870      0.443339
O      13.40315      1.82670      9.27514        -0.214613      0.083525     -0.286831
O      13.38974     13.54689      9.23901        -0.087502      0.000586     -0.037099
O       1.87804      5.73780      0.64613         0.017327      0.068466     -0.844355
O       1.84487      5.67886     13.62966         0.531771      0.103584     -0.381919
O      13.55677      5.72601      0.49828        -0.747306      0.074618      0.376265
O      13.39425      5.67161     13.58214         0.118063      0.034503     -0.670722
O       1.95647      5.66962      4.78236        -0.061153     -0.075719     -1.653773
O      13.15831      5.86342      4.86623         0.699472     -0.650704     -1.234147
O       1.87697      5.76130      9.30677         0.123434      0.084400     -0.504187
O      13.31582      5.79715      9.40378         0.561544     -0.180642     -0.420093
O       1.81708      9.52790      0.52311         0.034758      0.133473     -0.748951
O       1.82255      9.52523     13.65404        -0.095269      0.033177      0.039231
O      13.29505      9.49313      0.51556         0.261647     -0.014843      0.497943
O      13.42160      9.67393     13.57153        -0.366756     -0.225271      0.312188
O       1.77646      9.63190      4.97070         0.076232      0.094325     -1.223409
O      13.44012      9.59765      4.74829        -0.140317     -0.216830     -0.765051
O       1.74550      9.60650      9.23864         0.298909     -0.489347     -0.630392
O      13.25935      9.52945      9.33372         0.057127     -0.201577     -0.895166
O       5.77104      1.99087      0.60025        -0.131917     -0.531632     -1.751066
O       5.76360      1.79149     13.60533        -0.195501      0.337341     -1.880253
O       5.64669     13.35171      0.49946         0.274092      0.027056     -0.818632
O       5.73035     13.40578     13.55767        -0.269156      0.359476     -1.395155
O       5.79205      1.81312      4.95718        -0.332797      0.194993     -2.276126
O       5.79388     13.47304      4.87254        -0.261758     -0.446769     -0.697613
O       5.78823      1.94507      9.25412        -0.339266      0.022673     -0.296193
O       5.75802     13.30770      9.32389         0.385399      0.128272     -0.801611
O       5.68249      5.78679      0.56017        -0.106452      0.077248     -1.016967
O       5.84036      5.70934     13.62266        -0.311210     -0.007204     -0.567258
O       5.70282      5.91579      4.93348        -0.066632     -0.536286     -1.961872
O       5.69263      5.53264      9.14975        -0.033413      0.700954      0.906622
O       5.67827      9.45889      0.54337         0.100736      0.453991      0.048293
O       5.64315      9.74632     13.65572        -0.060846     -0.818009     -2.441498
O       5.67713      9.71146      4.88644        -0.012549     -0.207233     -1.280579
O       5.61516      9.59706      9.22981         0.365115      0.255820      0.993195
O       9.56507      1.78002      0.62907        -0.123820     -0.114422     -0.728375
O       9.59610      1.79601     13.68110         0.085643      0.309426     -0.123339
O       9.47172     13.42616      0.49703         0.093276      0.140098     -0.950676
O       9.54143     13.54136     13.59341        -0.105842     -0.057304     -1.479676
O       9.52091      1.93101      4.93514        -0.073285     -0.038172     -0.337614
O       9.80039     13.29449      4.88175        -0.402217      0.301013      0.342198
O       9.58851      2.02099      9.20776         0.199140     -0.658720     -0.490362
O       9.59848     13.33693      9.22714        -0.757964      0.270984      0.417022
O       9.56083      5.60656      0.51805         0.309659      0.658731     -0.863370
O       9.44748      5.68051     13.71178        -0.082152      0.236714     -1.401414
O       9.76790      5.85556      4.91482        -0.287268     -0.413535     -1.153083
O       9.52281      5.87178      9.27445        -0.255659     -0.350840      0.780817
O       9.33768      9.45369      0.58430         0.641701      0.387917     -0.239509
O       9.43150      9.56997     13.57712         0.425188     -0.271304     -1.032727
O       9.56276      9.50188      4.73805         0.073055      0.432250     -0.413452
O       9.45331      9.40970      9.25166        -0.069699      0.507322      0.215806
O       3.86522      1.98123      2.71544        -0.958225     -0.138371      0.416950
O       3.78631      1.91074     15.78730         1.214915      0.563965     -0.131679
O       3.83366     13.31803      2.64937        -0.882810      0.097896      0.116778
O       3.76722     13.28728     15.83433        -0.237766      0.836810     -0.363022
O       0.01510      1.89659      2.73298        -0.067268     -0.297837      0.019866
O       0.04715      1.84146     15.67583        -0.707515      0.383408      0.345902
O       0.00280     13.60281      2.74445         0.322609     -0.899368     -0.020983
O      15.22406     13.54082     15.82501         1.514798     -1.131388     -0.268143
O       3.77400      1.97887      7.08905         0.240984     -0.141338     -0.184528
O       3.82459     13.36744      7.00613        -0.379717     -0.215483      0.333452
O      15.27147      1.77926      7.13279        -0.018183      0.707452     -0.323802
O      15.23768     13.46092      7.18151         0.565823      0.154355     -0.692916
O       3.79895      1.78546     11.39342         0.374362     -0.079461      0.132913
O       3.80268     13.54800     11.35995         0.353818     -0.150999      0.046095
O      15.32486      1.99857     11.52228         0.132335     -0.183453     -0.799726
O       0.00056     13.47898     11.43475        -0.453862     -1.079595     -0.226151
O       3.90257      5.69262      2.79074        -1.244782     -0.467653      0.016964
O       3.78895      5.81831     15.86932         0.121003     -0.708962     -0.471806
O      15.28032      5.72177      2.77338         0.964020      0.400196      0.004621
O      15.30222      5.76429     15.79154        -0.057099      0.446085      0.007289
O       3.68813      5.76855      7.00887         1.075196     -0.201854     -0.019021
O      15.21750      5.81060      7.04932        -0.160526     -0.271890     -0.435157
O       3.82481      5.65191     11.51319         0.247504      0.517227      0.043443
O       0.05674      5.59468     11.44728        -0.627777     -0.077357      0.311890
O       3.82331      9.70774      2.74128        -0.518470     -0.257005     -0.163707
O       3.70889      9.64526     15.72685         0.601331     -0.132662      0.430166
O       0.03656      9.39575      2.76422        -0.296225      0.503886     -0.875939
O      15.23095      9.53462     15.78055        -0.078439      0.185989      0.414104
O       3.73873      9.60866      7.07713         0.085007     -0.057623      0.032312
O      15.19646      9.54738      7.25426        -0.016562     -0.062420     -1.090949
O       3.74635      9.44476     11.41416         0.445787      0.256811      0.339358
O      15.22407      9.64253     11.48913         1.199018     -0.239658     -0.179591
O       7.58089      1.84649      2.83798         1.180475      0.027341      0.138092
O       7.66974      2.02952     15.84087        -0.211490     -0.819081     -0.254050
O       7.65995     13.46969      2.70809        -0.737140     -0.357384      0.072494
O       7.51403     13.47092     15.68772         1.226104     -0.160105      0.436046
O       7.58844      1.80125      7.11179         1.087233      0.063358      0.028852
O       7.63053     13.44260      6.94194         1.363298     -0.422544      0.720681
O       7.61505      1.93276     11.29664         1.780234      0.175477      0.620557
O       7.69103     13.34850     11.49901        -0.291550      0.231458     -0.636427
O       7.67212      5.80571      2.72471         0.894122     -0.231026      0.128023
O       7.61235      5.71594     15.92743        -0.263089      0.054258     -0.246390
O       7.69007      5.86121      6.88638        -0.906704     -0.284569      0.582791
O       7.59368      5.66996     11.47272         0.795712      0.509614     -0.416239
O       7.57522      9.63633      2.74610         0.695170     -0.595718      0.281154
O       7.57830      9.51205     15.69846         0.741025      0.201964      0.341033
O       7.63011      9.50909      6.86542         0.534479      0.250621      0.372535
O       7.57067      9.55747     11.51418         0.635806      0.240829     -0.470707
O      11.45341      1.83252      2.71111         0.706618      0.229898      0.117673
O      11.48060      1.98383     15.92416        -0.281430     -0.732463     -0.239597
O      11.45522     13.42888      2.67048         0.729995     -0.006655     -0.068262
O      11.38503     13.44940     15.61106         0.516483      0.398980      0.592258
O      11.48615      1.95689      7.05296        -0.439387     -0.325438      0.147735
O      11.50997     13.31327      7.17905         0.411132      0.426231     -0.281368
O      11.48382      1.88356     11.49731         0.012828     -0.494499     -0.384499
O      11.47989     13.56152     11.29918         0.001756     -0.109459      0.793937
O      11.55229      5.64382      2.68560        -0.985756      0.627083     -0.234751
O      11.43315      5.69246     15.75569         0.973571      0.302253      0.425152
O      11.43698      5.72961      7.07202         1.233988     -0.244438      0.368466
O      11.52876      5.93643     11.43009        -1.427338     -0.664364      0.714260
O      11.43749      9.65001      2.60735         0.485981     -0.447695      0.057526
O      11.46950      9.52140     15.83316        -1.101293      0.298751     -0.227905
O      11.39882      9.66919      7.08225         0.891381     -0.238381     -0.880874
O      11.47838      9.44226     11.56346        -0.895535      0.434465     -0.042048
O       1.80792      3.73667      2.72872         0.605789      1.279129     -0.008202
O       1.68106      3.89981     15.83604         1.641607     -0.505229     -0.348002
O       1.92845     15.34072      2.85563         0.569260      0.130892     -0.585435
O       1.96035      0.01540     15.71702         0.177547     -1.108249     -0.119726
O      13.39009      3.80272      2.64773        -0.043037     -0.150725      0.173335
O      13.43027      3.78357     15.83618         0.125842      0.488125      0.056363
O      13.44318     15.34626      2.69784        -0.214207     -0.068924      0.446993
O      13.56047      0.01379     15.77121        -1.702048     -0.109326     -0.435092
O       1.70157      3.87493      6.91263         0.122448     -0.865509      0.421663
O       1.87597      0.03343      7.00533         0.318100     -1.146199      0.106391
O      13.32860      3.81736      7.13238         0.451196      0.500544     -0.616474
O      13.29959     15.33088      6.92211        -0.226906      0.151242      0.463296
O       2.05462      3.74170     11.20781        -0.201040      0.353957      0.696114
O       1.74647     15.29603     11.32166         0.774878      0.711718      0.248327
O      13.31038      3.83408     11.37859         0.046414     -0.772798      0.531223
O      13.52755      0.02021     11.43011        -0.714589     -0.449900      0.272863
O       2.12026      7.66195      2.79639        -1.109881     -0.098957     -0.585351
O       1.85983      7.67152     15.88562        -0.149111     -0.545187     -0.044258
O      13.36125      7.64028      2.60954        -0.167800     -0.774831      0.437025
O      13.32405      7.67509     15.75860         0.119679     -0.697846     -0.183516
O       1.74308      7.66206      6.94740         0.418148     -0.392777      0.254592
O      13.21522      7.74504      6.97933         0.424909     -0.826186     -0.450511
O       1.76431      7.64554     11.46008         0.375068     -0.305050      0.068383
O      13.53383      7.62691     11.49302         0.148518      0.482746      0.499974
O       1.71599     11.48068      2.72078         0.816148      0.737818     -0.710953
O       1.71300     11.43628     15.85017         0.147554      1.365054     -0.169030
O      13.49992     11.45161      2.60432         0.166437      0.326725      0.145047
O      13.22791     11.57551     15.78392         0.665226     -1.080156      0.332938
O       1.69477     11.47473      7.14049         0.668602      0.597635     -0.238821
O      13.40547     11.46337      7.12216        -0.203239      0.217197     -0.578046
O       1.89448     11.40760     11.39182         0.233295      1.205245     -0.134099
O      13.26797     11.43156     11.33790        -0.031007      2.182593      0.224158
O       5.86463      3.83771      2.52264        -0.285139     -0.114639      1.379366
O       5.75530      3.82994     15.84508        -0.659797     -0.166731     -0.439193
O       5.66351     15.30628      2.62079        -0.069611     -0.406561      0.245843
O       5.79332      0.03119     15.77420        -0.991923      0.183148     -0.249425
O       5.77324      3.84990      7.06902        -0.134725     -0.185903     -0.573719
O       5.70918     15.26445      7.10557        -0.229059      0.553560      0.100939
O       5.72706      3.79308     11.41585        -0.393222      0.046922      0.239733
O       5.91965     15.31509     11.31107        -0.600345      0.026854      0.427844
O       5.71476      7.61018      2.67564        -0.188169      1.820732      0.514675
O       5.72845      7.67635     15.71159        -0.470357     -0.295098      0.051603
O       5.72074      7.69430      7.09093        -0.610170     -0.277771      0.106856
O       5.68616      7.61231     11.21069         0.177895     -0.175017      0.718064
O       5.79913     11.47358      2.70691        -0.244455      0.668921     -0.058168
O       5.71629     11.52247     15.62064        -0.131952      0.465176      1.081944
O       5.74857     11.41369      7.09307         0.046073      1.827728      0.195509
O       5.59458     11.49578     11.41978         0.547390     -0.031601      0.089154
O       9.59732      3.82770      2.64783        -0.364378     -0.242161      0.614869
O       9.58140      3.86858     15.89236        -0.295179     -1.642242     -0.143625
O       9.52173     15.29720      2.82463         0.218416      0.341664     -0.140340
O       9.53542     15.30195     15.79918        -0.322117      1.237644      0.297144
O       9.52731      3.82854      7.06684        -0.177440     -0.512832     -0.051476
O       9.64566     15.27669      7.05808        -0.255588      0.801701      0.177157
O       9.67389      3.88788     11.39679        -0.268187     -0.636343      0.157827
O       9.51684     15.35909     11.26981        -0.079663      0.224601      0.249972
O       9.57759      7.65388      2.66317         0.266557     -0.525519      0.012765
O       9.50684      7.61105     15.71590         0.165210      0.684909      0.240227
O       9.64346      7.66936      7.02981        -0.353262      0.480580     -0.020647
O       9.65422      7.71542     11.43577        -1.533552     -1.043179      0.637317
O       9.57861     11.51488      2.58282        -0.440870     -0.559988      0.483090
O       9.47914     11.52163     15.67612         0.092610     -0.410510      0.388432
O       9.53935     11.45133      7.04701        -0.442955      0.384819     -0.058357
O       9.67123     11.50068     11.37120        -0.395032     -0.328306      0.210486
