  # total energy = -7880.52216955 
CRSYTAL
PRIMVEC
    15.2000000000000000    0.0000000000000000    0.0000000000000000
     0.0000000000000000   15.2000000000000000    0.0000000000000000
     0.0000000000000000    0.0000000000000000    17.000000000000000
PRESSURE
7.69849 7.26727 5.34703 -0.014454 0.07522 -0.019751
PRIMCOORD
320 1
Pb       3.75921      3.84499      4.22225         0.015379     -0.316191      0.246304
Pb       3.70746      3.81095      0.08057         0.122926     -0.394114     -0.188565
Pb       3.73314     15.18708      4.32738         0.377120      0.232344     -0.253989
Pb       3.85431     15.19776      0.03508        -0.029232     -0.539933     -0.438207
Pb      15.08609      3.88627      4.21285         0.585519     -0.254292      0.044873
Pb      15.14791      3.68240     16.99108         0.318056      0.543985     -0.622037
Pb       0.01131      0.03986      4.17530        -0.244125     -0.184248      0.440880
Pb       0.02947      0.01788     16.89300        -0.167056     -0.306577      0.227009
Pb       3.74888      3.66931      8.51315         0.229359      0.521819     -0.092224
Pb       3.73488     15.18397      8.43685         0.444115     -0.225417      0.452008
Pb      15.07926      3.82741      8.42212         0.300058     -0.568197      0.413845
Pb       0.06595     15.15506      8.66049        -0.621691      0.155933     -0.795363
Pb       3.77134      3.84472     12.80578         0.056498     -0.478437     -0.546488
Pb       3.81368     15.09394     12.64125        -0.058315      0.197406      0.516024
Pb       0.05934      3.54765     12.78601        -0.462714      1.002849     -0.073034
Pb       0.01147     15.13446     12.66735        -0.552400     -0.372111      0.203873
Pb       3.64520      7.66271      4.24430         0.612589     -0.258282     -0.277444
Pb       3.91436      7.56324      0.08357        -0.652698      0.490157      0.494305
Pb      15.19126      7.58533      4.16765         0.475761      0.717165      0.412705
Pb       0.19331      7.66367     16.99934        -0.655846     -0.161262     -0.210176
Pb       3.69742      7.55856      8.49001         0.310856     -0.064909     -0.221361
Pb      15.15165      7.56167      8.52698         0.081274      0.091705     -0.768220
Pb       3.85263      7.63086     12.71441        -0.029037      0.110520     -0.086496
Pb      15.15627      7.55399     12.68707        -0.298957      0.351722      0.473102
Pb       3.69794     11.44016      4.24138         0.530525     -0.256435      0.203243
Pb       3.79092     11.36964      0.03331         0.575872      0.410454     -0.558189
Pb      15.13560     11.41689      4.21707        -0.067150     -0.603867     -0.143376
Pb       0.06577     11.42227     16.99646        -0.353481      0.040070     -0.307567
Pb       3.80051     11.32347      8.42016        -0.352265      0.721966      0.199395
Pb      15.05615     11.34692      8.50595         0.599128      0.361303     -0.250869
Pb       3.81875     11.32601     12.73418        -0.095741      0.158819     -0.241994
Pb       0.02298     11.39460     12.59448        -0.474123     -0.452884      0.685313
Pb       7.59967      3.75478      4.13737         0.334238      0.623641      0.691811
Pb       7.56679      3.77163     16.93938         0.159271      0.026102      0.109314
Pb       7.60901      0.10345      4.23360        -0.237756     -0.322626     -0.496090
Pb       7.55563      0.01229      0.01408        -0.023896     -0.386096      0.163652
Pb       7.60695      3.90986      8.37171        -0.363002     -0.855305      0.207828
Pb       7.55059     15.14093      8.35560         0.178624      0.182458      1.098890
Pb       7.50177      3.72847     12.68794         0.512523      0.119888     -0.056413
Pb       7.66912      0.10064     12.67028        -0.312809     -0.901420      0.011074
Pb       7.54197      7.68293      4.43300        -0.036236     -0.384313     -1.101422
Pb       7.45207      7.54111     16.92660         0.896766      0.349770      0.262911
Pb       7.63637      7.54641      8.50777        -0.480413      0.641642     -0.338453
Pb       7.70615      7.50074     12.80407        -1.057614      0.451944     -0.349407
Pb       7.64591     11.41789      4.15623        -0.534193     -0.184297      0.159302
Pb       7.69664     11.34218     16.98885        -0.910266     -0.059156     -0.253793
Pb       7.52169     11.35470      8.33547         0.618818      0.301665      0.838788
Pb       7.52890     11.22845     12.72698         0.018677      0.649382      0.077662
Pb      11.46542      3.61180      4.21771        -0.465581      1.076326     -0.005283
Pb      11.45147      3.82051      0.01536         0.028979      0.127707     -0.750697
Pb      11.35458      0.02522      4.22934         0.078209     -0.199238     -0.633080
Pb      11.37333     15.13226     16.88826         0.307988      0.279069      0.653633
Pb      11.29608      3.77210      8.47582         0.476513      0.005471     -0.207739
Pb      11.30035     15.14298      8.50924         0.254631      0.224719      0.493428
Pb      11.43895      3.81204     12.77937        -0.065744     -0.337231     -0.443099
Pb      11.36362     15.12938     12.85874         0.148236      0.234079     -0.934105
Pb      11.39591      7.68225      4.24324        -0.246983     -0.369569     -0.008254
Pb      11.29721      7.52069      0.01403         0.313667      0.113393     -0.638215
Pb      11.33246      7.57831      8.33901         0.547368     -0.238179      1.069983
Pb      11.27839      7.43349     12.65689         1.206952      0.651346      0.393553
Pb      11.43529     11.49013      4.18850         0.015570     -0.471358     -0.202605
Pb      11.30693     11.36096      0.10106         0.479457      0.108701     -0.746002
Pb      11.33203     11.40430      8.53287        -0.478506      0.277342     -0.186766
Pb      11.46773     11.38986     12.97192         0.082488     -0.338804     -0.969657
Ti       1.89582      1.86276      2.24215         0.378501      0.153526     -0.554471
Ti       1.89141      1.89139     14.94079         0.344573     -0.669653      0.985508
Ti       1.93454     13.31906      2.23762        -0.612475     -0.015302      0.306745
Ti       1.87822     13.31276     15.02148         1.071841     -0.649626     -0.130094
Ti      13.34413      1.93360      2.11643        -1.319344     -0.907377      0.401004
Ti      13.28310      1.84410     14.93574         0.006324      0.620083      0.712193
Ti      13.33470     13.38140      2.25642        -0.732066     -0.915685     -0.137320
Ti      13.25422     13.28060     15.05504         0.699142     -0.810862      0.423670
Ti       1.89063      1.87169      6.50362        -0.473334      0.279862     -0.198180
Ti       1.81801     13.29400      6.47984         0.039598     -0.299655      1.538968
Ti      13.29024      1.84469      6.45341         0.273678      0.338628      1.711524
Ti      13.21362     13.35356      6.49130         0.299857      0.056992      1.399281
Ti       1.90319      1.87162     10.68201         0.465728      0.274690      0.589732
Ti       1.85501     13.23860     10.68674         0.103728     -0.813291     -0.735044
Ti      13.29664      1.89611     10.75885        -1.226399     -1.034804     -0.005638
Ti      13.15097     13.23846     10.71053        -0.000126      0.653404      0.660814
Ti       1.91136      5.64226      2.25698         0.214447      1.016956      1.619124
Ti       1.95467      5.73120     15.02342        -1.614902     -0.892115      0.182322
Ti      13.31576      5.81372      2.23805        -0.147787     -1.414199     -0.289116
Ti      13.40672      5.68183     15.04051        -0.480932      0.500284     -0.419216
Ti       1.92320      5.68291      6.52777        -0.527039      0.311951     -0.473782
Ti      13.34221      5.68497      6.44698        -1.005194      0.367337      1.133895
Ti       1.89839      5.64803     10.75425        -0.214633      0.145652     -0.221748
Ti      13.35017      5.62008     10.71228        -0.907603      0.028826     -0.331211
Ti       1.92823      9.57545      2.21334        -1.131701     -0.993115      0.855395
Ti       1.91208      9.52121     14.97985        -0.130395     -0.075811      0.880291
Ti      13.23279      9.48174      2.15445         1.261449      0.451364      1.595476
Ti      13.28224      9.49026     15.02249         0.431745     -0.142262     -1.412333
Ti       1.89824      9.54574      6.44372        -0.967383     -0.334736     -0.134621
Ti      13.26596      9.54729      6.51039         0.745836     -0.580060      0.133247
Ti       1.85985      9.42319     10.61832         0.373632      0.557834      1.404857
Ti      13.19444      9.46357     10.64012         0.186621      0.250802      1.631320
Ti       5.70023      1.90315      2.24876         0.198969     -0.828984      1.060159
Ti       5.66589      1.86564     14.95559        -0.068981     -0.489423      0.566601
Ti       5.67541     13.29854      2.30985         0.452255     -0.117245     -0.967395
Ti       5.77838     13.30182     14.96072        -1.506790     -0.885379      1.088180
Ti       5.72218      1.90290      6.45825        -0.497684      0.537195      0.652365
Ti       5.64411     13.28694      6.44239        -0.541138     -0.234035      0.212468
Ti       5.71727      1.88773     10.63623        -0.581259     -0.277188      0.638657
Ti       5.61281     13.29702     10.63914         1.759953     -0.446250      0.098520
Ti       5.74335      5.64946      2.27629        -0.042002      1.543855     -0.464237
Ti       5.60342      5.63884     15.08206         0.702919      0.275208     -0.563807
Ti       5.62433      5.73068      6.43166         0.266274     -0.326671      1.582617
Ti       5.64037      5.60230     10.72810         0.383015      1.496209      0.802924
Ti       5.71912      9.48644      2.24277        -0.773628     -0.271952      0.395484
Ti       5.65682      9.46698     15.01824         0.849971      0.848958      0.610200
Ti       5.65584      9.50055      6.47617         0.709779     -0.687820      0.497803
Ti       5.73058      9.46410     10.61127        -0.651989     -0.223843      1.855250
Ti       9.57245      1.98654      2.11107        -1.150083     -1.030539      0.900564
Ti       9.53798      1.87485     15.00512        -0.227024      0.060717      0.090505
Ti       9.47518     13.32806      2.22126        -0.368009      0.190638      1.275694
Ti       9.45287     13.25228     14.98198        -0.302896     -0.146654      0.153817
Ti       9.53506      1.83614      6.43190        -0.699114      1.105490      2.673724
Ti       9.44371     13.29863      6.38733         0.401294     -0.330997      0.627236
Ti       9.52567      1.90754     10.67160         0.274868     -0.144491      0.948425
Ti       9.41166     13.27822     10.85799        -0.458986     -0.002337     -0.331350
Ti       9.58193      5.76834      2.24381        -0.866117     -0.678667      2.435262
Ti       9.48645      5.62207     14.94576         0.528074      0.817111      1.634462
Ti       9.43837      5.71991      6.46494         0.767210     -0.761335     -1.651859
Ti       9.42341      5.68888     10.69730         0.649092     -0.554279      1.337730
Ti       9.46887      9.49060      2.13835        -0.400491     -0.533596      0.906582
Ti       9.51856      9.40998     14.92333        -0.840834      0.131030      1.884353
Ti       9.53549      9.50887      6.39284        -1.881516      0.372789      0.466215
Ti       9.46356      9.56724     10.71354         0.169403     -0.079266     -0.103730
O       1.76352      1.82646      0.43975         0.315016      0.149630      0.969637
O       1.92552      1.89518     13.16549         0.042701     -0.146297     -0.317590
O       1.85935     13.28564      0.48181         0.083045      0.247333     -0.175085
O       2.04235     13.16213     13.24327        -0.436161      0.433526     -0.430324
O      13.27147      1.89259      0.35304         0.252167     -0.018240      0.066329
O      13.26355      1.91012     13.18428         0.023004     -0.171956     -0.728223
O      13.36667     13.47105      0.51380        -0.219680     -0.705509     -0.513550
O      13.17257     13.17650     13.31519         0.054048      0.150612     -0.966955
O       1.91241      1.89962      4.70002        -0.394760     -0.272695      0.416803
O       1.92356     13.29049      4.74660        -0.499710      0.251817     -1.294756
O      13.25716      1.90361      4.68891         0.033164     -0.179423     -0.480168
O      13.22759     13.23977      4.72934        -0.063645      0.307379     -0.472111
O       1.87036      1.90472      8.91650         0.051886     -0.301986     -0.164152
O       1.88619     13.24542      8.88939        -0.158982      0.163809      0.863415
O      13.22123      1.85859      9.00181         0.281125      0.216394     -0.218303
O      13.16715     13.26451      8.92912        -0.037779      0.038873      0.349993
O       1.87172      5.69891      0.55328        -0.184577     -0.315892     -1.603874
O       2.02287      5.78075     13.27964        -0.135094     -0.486359     -0.857758
O      13.40377      5.79934      0.47283        -0.281110     -0.151353     -0.382166
O      13.27131      5.66308     13.28323         0.099575     -0.074153     -0.902960
O       1.82683      5.69534      4.72335         0.147591     -0.444251      0.378192
O      13.43447      5.66430      4.67931        -0.410063     -0.067693     -0.053932
O       1.98685      5.75234      8.96625        -0.419427     -0.170904      0.081985
O      13.31063      5.56509      8.90126         0.187840      0.396510      1.144168
O       2.02070      9.53856      0.46120        -0.792415     -0.162402     -0.579783
O       1.87267      9.45570     13.23235         0.135556      0.184262     -0.381588
O      13.13835      9.39679      0.44247         0.473655      0.117212     -1.180819
O      13.34089      9.62337     13.16837        -0.163829     -0.089345      1.182634
O       1.94054      9.55209      4.64158        -0.259275      0.042150      0.623942
O      13.28853      9.55107      4.76286        -0.306449     -0.168212     -0.322181
O       1.88196      9.48269      8.88711         0.155500     -0.203548     -1.163823
O      13.14737      9.51936      8.86996         0.322240      0.012423     -0.090867
O       5.79915      1.77637      0.52157        -0.160594      0.553691     -1.080047
O       5.57402      1.83406     13.18929         0.274360      0.227514      0.389131
O       5.69405     13.32445      0.51163        -0.184117     -0.100924      0.555901
O       5.67213     13.39928     13.22115        -0.071833     -0.242678     -0.670121
O       5.59521      1.94146      4.70366         0.185293     -0.245988     -0.550452
O       5.68653     13.24936      4.67850        -0.113810      0.341109      0.141410
O       5.76614      1.89390      8.90105        -0.343203      0.184994     -0.567434
O       5.59600     13.23414      8.84708         0.224868      0.057306      0.609893
O       5.62715      5.67721      0.41650         0.678696     -0.276464      0.948109
O       5.68976      5.63421     13.29642        -0.589807     -0.113733      0.306888
O       5.60390      5.64161      4.71481         0.136562      0.051066     -1.219739
O       5.62907      5.71066      9.00241         0.147541     -0.038064     -0.699957
O       5.71504      9.48279      0.45933         0.051232      0.037805     -0.010612
O       5.80457      9.35018     13.27314        -0.603973      0.343809     -0.450848
O       5.71110      9.40972      4.74358        -0.095580      0.193207     -1.030222
O       5.71891      9.57363      8.87439        -0.216163     -0.413631     -0.448951
O       9.57796      1.89240      0.35136        -0.222627      0.343387      0.120683
O       9.63694      1.94213     13.23666        -0.545972     -0.265221     -0.137093
O       9.53250     13.31177      0.49808        -0.057787     -0.159171     -1.257043
O       9.37017     13.29229     13.22206         0.334542      0.192245      0.177965
O       9.55795      1.78648      4.73684         0.114152      0.087458     -2.069402
O       9.47465     13.26003      4.61494         0.187802      0.349304      0.014100
O       9.41571      1.98616      8.93367         0.251990     -0.222565     -0.668231
O       9.31449     13.27392      9.10277         0.682178     -0.078138     -0.875383
O       9.57317      5.66266      0.53272         0.007484     -0.101653     -1.847734
O       9.58830      5.77140     13.21134        -0.193448     -0.686676     -0.903589
O       9.40514      5.77435      4.67624         0.435844      0.039480      0.931655
O       9.31555      5.77461      8.96816         0.360925     -0.291402     -1.411118
O       9.44333      9.51257      0.36690         0.360282     -0.150503      0.198029
O       9.41333      9.37057     13.21055         0.101669      0.145352     -1.776507
O       9.32619      9.38406      4.62198         0.789774      0.233107      0.230379
O       9.47190      9.52632      8.92544        -0.036699      0.003902      0.292501
O       3.81244      1.83177      2.50533        -0.752850      0.237056      0.147587
O       3.77923      1.82214     15.44437         0.603948     -0.088207     -0.304772
O       3.79408     13.30532      2.68773        -0.867176     -0.002433     -0.168366
O       3.77747     13.34508     15.45080         0.743841      0.040158     -0.121140
O      15.13056      1.80853      2.57231         0.737388      0.204293      0.002214
O      15.18019      1.82956     15.23877         0.383102      0.179803      0.209579
O      15.16732     13.31686      2.64326         0.504126      0.479021      0.230510
O      15.17708     13.20526     15.32415         0.667593      0.262336      0.220352
O       3.76009      1.98075      6.77973        -0.007249     -0.648208      0.465095
O       3.74676     13.15029      6.74516         0.263920      0.498933      0.184783
O      15.17075      1.73955      7.00629         0.010883      0.390136     -0.949320
O      15.07631     13.41197      7.00243         0.263277     -0.129895     -0.738276
O       3.74188      2.04188     10.97905         0.370548     -0.339518      0.096604
O       3.81323     13.06568     11.00952        -0.631909      0.497526      0.343341
O      15.16659      1.74794     11.14712         1.075563     -0.199469     -0.010325
O      15.07706     13.31153     11.13035         1.309796      0.410902     -0.386063
O       3.79952      5.67812      2.55487        -0.269467     -0.530429      0.290060
O       3.71828      5.68717     15.57642         1.814490     -0.892616     -0.459968
O      15.18112      5.72278      2.62076         0.096519     -0.499157      0.089305
O       0.05395      5.53389     15.34384         0.560881      0.689756      0.413758
O       3.80015      5.73860      6.86127        -0.912112     -0.331244      0.076567
O      15.19535      5.71200      6.95361        -0.134016     -0.086066     -0.342260
O       3.76160      5.54276     11.13870         0.192059      0.399760      0.097652
O      15.18839      5.74444     11.20422         0.106797     -0.181834     -0.551098
O       3.71795      9.46623      2.55455         1.194053      0.644257      0.448309
O       3.78733      9.46657     15.45516         0.253718      0.054932     -0.539817
O       0.00032      9.47350      2.62048        -0.550163     -0.171242     -0.431048
O       0.00948      9.53251     15.39828         0.899197      0.023934      0.328194
O       3.77131      9.51086      6.75971        -0.619799      0.180366      0.390514
O       0.01692      9.44238      6.77066        -1.033052      0.357859      0.577518
O       3.75206      9.51716     11.11893         0.756335      0.031333     -0.372334
O      15.18852      9.51558     10.89429        -0.800538     -0.492698      0.289343
O       7.61893      1.96773      2.66466        -0.069791     -0.330703     -0.422118
O       7.62682      1.99400     15.36758        -0.871202     -0.361771     -0.341015
O       7.52839     13.22327      2.57393         1.261898      0.098566      0.258543
O       7.61739     13.25250     15.55610         0.342661      0.072124     -0.747883
O       7.56937      1.82246      6.71809         0.346251      0.109695      0.056796
O       7.57744     13.37054      6.72267        -0.239400     -0.251121      0.149174
O       7.58385      1.84278     11.06654        -0.301611     -0.045087      0.308956
O       7.54710     13.39500     11.17448        -1.269895      0.334978      0.010870
O       7.65245      5.61162      2.66833        -1.270394      0.466950     -0.596392
O       7.60043      5.62450     15.25467        -0.388788     -0.084712      0.436907
O       7.53321      5.71050      6.81462         0.234470      0.541067      0.169114
O       7.55932      5.64450     11.11397        -0.021701      0.184343      0.210604
O       7.54016      9.40248      2.59505         0.842149      0.240486     -0.114858
O       7.58150      9.36814     15.35567        -0.096605      0.506136      0.230000
O       7.60149      9.54769      6.83290         0.311040     -0.777482     -0.212176
O       7.57176      9.40286     11.05336         0.155798     -0.260877      0.041381
O      11.36690      1.82810      2.59409         0.383560      0.234842     -0.009585
O      11.41584      1.87451     15.33932        -0.063117     -0.185213      0.123203
O      11.36996     13.16375      2.59132         0.002236      0.670306     -0.029177
O      11.37589     13.23910     15.48375        -0.658636      0.053281     -0.427580
O      11.36224      1.93465      6.86687         0.442617      0.124270     -0.171937
O      11.31330     13.34058      6.94342         0.214084     -0.254337     -0.570567
O      11.40735      2.02761     11.07218        -0.519889     -0.165728      0.111185
O      11.32178     13.10661     11.25555         0.315014      0.515966     -0.286089
O      11.45358      5.75335      2.70380        -0.628447     -0.245910     -0.200560
O      11.53087      5.75733     15.44980        -1.697255     -0.336242     -0.027294
O      11.35989      5.69065      6.88270         0.482275     -0.265961     -0.381401
O      11.38392      5.58365     11.00739         0.122707     -0.023451      0.254203
O      11.38646      9.46739      2.56388        -0.954551      0.048248      0.167592
O      11.38698      9.41793     15.29174         0.155037      0.226203      0.229084
O      11.31346      9.50771      6.80193         1.349161      0.090569     -0.030538
O      11.33004      9.68630     11.05927         0.620122     -0.582420      0.015846
O       1.87198      3.73147      2.63074        -0.218937      0.076479     -0.184811
O       1.86977      3.69708     15.42256         0.502300      0.693702     -0.091734
O       1.90878     15.19894      2.76941        -0.252238     -0.049142     -0.506676
O       1.85766     15.16262     15.38545         0.011531      0.587916     -0.295169
O      13.15711      3.76494      2.50966         0.695333      0.375679      0.167053
O      13.32149      3.72563     15.29498        -0.148342      0.411446      0.620492
O      13.15262      0.00398      2.55333         0.353845      0.540246      0.630664
O      13.33966     15.15180     15.31746        -0.421806      0.474047      0.000952
O       1.85531      3.78350      6.89973        -0.165969     -0.060134     -0.261885
O       1.96422     15.13562      6.92665        -0.282355      1.082881     -0.411838
O      13.32486      3.78662      6.83291        -0.047832     -0.297205     -0.334552
O      13.12345      0.05954      6.95842         0.249318     -1.043959     -0.743554
O       1.78228      3.76438     11.05118        -0.265435     -0.046404      0.299198
O       2.02145     15.10549     10.98121        -0.436620      0.627760      0.346648
O      13.42408      3.73132     11.11293         0.041978      1.201305      0.160088
O      13.14469     15.15445     11.24101         0.192767     -0.239223     -0.259536
O       1.92143      7.58808      2.67928        -0.553588     -0.115192     -0.540851
O       2.05340      7.51276     15.46905        -1.266733      1.794600     -0.177888
O      13.24506      7.58905      2.66004         0.280614      1.116468      0.089140
O      13.45060      7.64380     15.19603         0.068075     -0.611662      0.605462
O       1.82519      7.58215      6.83251         0.522426      0.328122      0.203377
O      13.26958      7.58169      6.90665        -0.091890      0.109420     -0.339379
O       1.93023      7.54768     11.11473        -0.039363      0.366207     -0.244945
O      13.22391      7.56328     11.12836         0.084360      0.479489     -0.621522
O       1.75598     11.47621      2.60475         0.740690     -0.507189     -0.055111
O       2.03069     11.38861     15.42208        -0.666596     -0.234193     -0.086058
O      13.29235     11.33576      2.61632        -0.029567      0.717085     -0.209165
O      13.32987     11.43486     15.51980        -0.652710     -1.093532      0.143365
O       1.77070     11.45116      6.85210        -0.056318     -1.236424     -0.057165
O      13.26927     11.41615      6.89061        -0.224454      0.217355     -0.167190
O       1.82326     11.38195     10.99390         0.084440     -0.442962      0.285951
O      13.31632     11.41424     11.13705        -0.012337     -0.981457     -0.585279
O       5.64776      3.81720      2.63438         0.043975     -0.665653     -0.142164
O       5.59527      3.75103     15.42445         0.095643     -0.119361     -0.114206
O       5.73773     15.18024      2.60686        -0.059879      0.651411      0.477026
O       5.78664     15.12094     15.41339        -0.139144      1.978715     -0.106662
O       5.64074      3.79950      6.95557         0.249497      0.050641     -0.592093
O       5.59300     15.17506      6.99103        -0.082594      0.161217     -1.266178
O       5.67802      3.75574     11.14154         0.308457     -0.145641      0.087818
O       5.50386      0.02374     11.04279         0.342455     -0.574477     -0.370877
O       5.54055      7.58198      2.66837         0.752092     -0.359911     -0.338247
O       5.64784      7.58712     15.46391        -0.142694     -1.235216     -0.407948
O       5.60012      7.62459      6.91841         0.599366     -0.542159     -0.203297
O       5.66314      7.56925     11.21085        -0.159689     -0.301305     -0.925081
O       5.65163     11.34650      2.74815        -0.112750     -0.050073     -0.527255
O       5.70938     11.39439     15.32159        -0.052893     -0.242934      0.009609
O       5.66403     11.36067      6.86492         0.150761      0.922409     -0.395515
O       5.84008     11.35025     11.10490        -0.636021      0.050150     -0.265208
O       9.46652      3.79234      2.61935         0.886156     -0.192392     -0.174407
O       9.55682      3.78551     15.35851         0.251336      0.481506      0.088693
O       9.35667      0.02519      2.63775         0.723283     -0.115161     -0.379902
O       9.48386     15.16558     15.35572         0.009296      0.092722     -0.243911
O       9.45883      3.81187      6.78632        -0.189748     -0.228863      0.133084
O       9.47791     15.19822      7.00649         0.127895     -0.344200     -1.078886
O       9.38043      3.75141     11.08931         0.111657      0.918127      0.143932
O       9.54078     15.18507     11.11991         0.320214      0.949792      0.386113
O       9.44883      7.60234      2.54165         0.396127      0.468673     -0.000689
O       9.42262      7.56070     15.34164         0.525870     -1.160355      0.262567
O       9.58317      7.59928      6.86325        -1.177280      0.375835     -0.348976
O       9.52166      7.57309     11.11949        -0.191170      0.110887     -0.357148
O       9.42257     11.37003      2.50501         0.107515     -0.257309      0.087306
O       9.48681     11.33141     15.27108         0.060364      0.407270      0.417304
O       9.49530     11.44658      6.80464        -0.101988     -0.357478     -0.281554
O       9.31619     11.41650     11.18861         0.037245     -1.363689     -0.089213
