  # total energy = -7870.20986773 
CRSYTAL
PRIMVEC
    15.010000000000000    0.0000000000000000    0.0000000000000000
     0.0000000000000000   15.010000000000000    0.0000000000000000
     0.0000000000000000    0.0000000000000000    16.400000000000000
PRESSURE
20.6354 20.5533 12.3372 0.122382 -0.158734 -0.024163
PRIMCOORD
320 1
Pb       3.77049      3.72514      4.09843        -0.235302      0.003876      0.670842
Pb       3.74782      3.73997     16.38674         0.055099     -0.006277      0.905800
Pb       3.73031      0.00191      4.07155        -0.073181      0.158739      0.947198
Pb       3.74737     14.99796     16.36620        -0.013447      0.009702      0.685096
Pb      14.97552      3.71833      4.06507         0.593080      0.139237      1.033768
Pb      14.99522      3.72052     16.36025        -0.057293      0.215563      0.862372
Pb      14.98026     15.00261      4.08663         0.402599     -0.126253      0.700526
Pb      14.97601     14.98813     16.37862         0.169696      0.140489      0.701947
Pb       3.74336      3.72260      8.18824        -0.003540     -0.353014      0.022366
Pb       3.74992     14.98384      8.18440        -0.183985     -0.025428      0.299220
Pb      14.99595      3.73577      8.18427         0.221520     -0.057619      0.494587
Pb      14.98193     14.97420      8.16398         0.259073      0.183227      0.660399
Pb       3.74876      3.72822     12.25735        -0.181013      0.141846      1.064148
Pb       3.73760     14.99826     12.29090        -0.092401     -0.373503      0.657738
Pb      14.99246      3.72398     12.26789         0.132350      0.151081      1.144810
Pb      14.99790     14.99606     12.26783        -0.210614      0.025692      0.655056
Pb       3.71249      7.50319      4.06511        -0.252764     -0.431237      0.722783
Pb       3.74225      7.47722      0.00104        -0.070637     -0.198800      0.379738
Pb      14.97898      7.48549      4.06839         0.323674      0.102135      0.844345
Pb      14.98813      7.48804     16.38317        -0.068056      0.302136      0.545559
Pb       3.72946      7.50509      8.15076         0.072831     -0.294607      0.721727
Pb      14.99355      7.49530      8.17148        -0.200722      0.144059      0.510209
Pb       3.73326      7.49717     12.26753         0.595277      0.189590      1.008229
Pb      14.99979      7.46204     12.27043        -0.111375      0.316143      0.971073
Pb       3.71524     11.23035      4.07927        -0.011924      0.270352      0.692900
Pb       3.73599     11.20598     16.35651        -0.079737      0.366079      0.765967
Pb      14.98533     11.23147      4.06529         0.308689      0.021847      0.899428
Pb      14.98328     11.26581     16.38603         0.115217     -0.550879      0.339394
Pb       3.72837     11.21351      8.17281        -0.117491      0.477270      1.171634
Pb      14.98828     11.22745      8.15926         0.232828     -0.098865      1.064044
Pb       3.73983     11.24571     12.27834        -0.105127     -0.068178      0.506146
Pb      14.99841     11.24628     12.27525        -0.238092     -0.246771      0.573622
Pb       7.49226      3.72905      4.07531        -0.539269      0.250455      0.470776
Pb       7.48621      3.75146     16.36195        -0.002173      0.059379      1.116666
Pb       7.48587     14.97212      4.08692        -0.459977     -0.093156      0.454327
Pb       7.46054     14.99124     16.36547         0.116114      0.156134      0.864458
Pb       7.48918      3.72077      8.17607         0.083372      0.372985      0.706349
Pb       7.48718     14.99968      8.18123        -0.032973     -0.474602      0.760998
Pb       7.47921      3.72831     12.26716         0.120461      0.278454      0.654024
Pb       7.50077     14.97050     12.28413        -0.083002      0.022359      0.723861
Pb       7.45670      7.49292      4.04904         0.160436     -0.185390      1.069090
Pb       7.47881      7.47800     16.37496         0.239536     -0.213223      0.735167
Pb       7.48551      7.48876      8.18926         0.259513      0.054838      1.333439
Pb       7.49978      7.48293     12.29558        -0.169256     -0.106488      0.610033
Pb       7.48639     11.25317      4.06184        -0.166213     -0.051839      0.817507
Pb       7.49362     11.24060     16.37351        -0.103303      0.110519      1.339424
Pb       7.47523     11.23303      8.17181         0.372740     -0.134600      0.924189
Pb       7.49681     11.22809     12.27417        -0.102510     -0.009226      0.411953
Pb      11.23021      3.73641      4.07192        -0.057854      0.022712      0.684883
Pb      11.25437      3.74852     16.36226        -0.200494     -0.136519      1.073465
Pb      11.26874     14.98358      4.08709        -0.099621      0.218500      0.541171
Pb      11.22397     14.97141     16.38134        -0.201883      0.333166      0.470117
Pb      11.27349      3.73082      8.16175        -0.410843      0.582108      0.480845
Pb      11.25658     14.97481      8.17703        -0.149165     -0.071182      0.463010
Pb      11.25666      3.72295     12.24642        -0.278208      0.613404      1.484635
Pb      11.24593      0.00629     12.26507         0.232934     -0.566473      1.005771
Pb      11.23975      7.47881      4.07817         0.113481      0.255838      0.657803
Pb      11.22587      7.47920     16.38572        -0.202583      0.143669      0.665521
Pb      11.21895      7.47790      8.16780        -0.052321      0.222496      0.781143
Pb      11.24531      7.46366     12.26444        -0.224213      0.093785      0.960522
Pb      11.25114     11.24267      4.07248        -0.228179     -0.209540      0.938827
Pb      11.23554     11.22745     16.37362         0.097189     -0.179692      0.815516
Pb      11.22249     11.23586      8.18164        -0.230999     -0.304059      0.882601
Pb      11.22933     11.24864     12.25957        -0.023060     -0.080926      1.078569
Ti       1.84800      1.85757      2.20864         0.795620      0.035087     -0.240271
Ti       1.86757      1.86566     14.53813         0.333009     -0.124002     -1.140036
Ti       1.84830     13.09374      2.17569         0.155892      0.496261     -0.752604
Ti       1.81703     13.11935     14.49144         1.250515      0.052268     -0.588290
Ti      13.11555      1.88182      2.21738        -0.210211     -0.859918     -1.346693
Ti      13.10785      1.86670     14.50547         0.328745     -0.066437     -1.106638
Ti      13.10491     13.10515      2.18132         1.096062      0.563107      0.028416
Ti      13.10529     13.12920     14.53280        -0.004040     -0.368595     -0.805333
Ti       1.84846      1.85463      6.31440         1.061290      0.289953     -0.474069
Ti       1.85500     13.08598      6.30130         0.000610      1.828059     -0.840977
Ti      13.07714      1.86463      6.29240         1.095344      0.074409     -0.590576
Ti      13.11401     13.08463      6.29801         0.486582      0.891010      0.083406
Ti       1.84290      1.85030     10.39680         0.275514     -0.122101     -0.873444
Ti       1.83195     13.11986     10.38430         0.812952     -0.486143     -1.291521
Ti      13.06506      1.93575     10.38810         1.161088     -1.994815     -0.248299
Ti      13.11353     13.11926     10.37734        -0.233644     -0.290945     -0.809414
Ti       1.83957      5.60162      2.17998         0.693165      0.295961      0.264590
Ti       1.83854      5.61043     14.45808         0.309672      0.433449     -0.128860
Ti      13.11589      5.59361      2.24089         0.079320      0.675755     -0.837949
Ti      13.11627      5.60505     14.50297         0.032404      1.111751      0.086430
Ti       1.86197      5.59097      6.30592         0.071879     -0.001446     -1.509565
Ti      13.12388      5.63175      6.27423        -0.145515      0.084025     -0.102566
Ti       1.88239      5.60135     10.38762        -0.197483      0.539642     -0.783865
Ti      13.12491      5.59396     10.37379        -0.183218      0.990104      0.307694
Ti       1.82950      9.37190      2.17893         0.104973     -0.302597      0.412087
Ti       1.92349      9.38463     14.47630        -1.555184     -0.689338     -0.063028
Ti      13.10613      9.40348      2.22103        -0.374882     -1.588233     -0.640044
Ti      13.09414      9.37383     14.49649         0.637104     -0.286341     -0.349739
Ti       1.92459      9.36348      6.30985        -2.360257     -0.159873     -1.185726
Ti      13.12272      9.42579      6.30537        -0.017537     -2.168062     -0.128410
Ti       1.87484      9.34035     10.38551        -0.020463      0.773852     -0.905207
Ti      13.10269      9.33412     10.40109        -0.031980      0.537976     -1.329043
Ti       5.63949      1.84748      2.14852        -1.649687      0.353081     -0.518017
Ti       5.61279      1.88142     14.42877         0.688595     -0.177169      1.265207
Ti       5.56691     13.09589      2.19573         0.362777      0.842840      0.391891
Ti       5.60690     13.12920     14.50424        -0.302443     -0.003050     -0.025067
Ti       5.66226      1.84124      6.30149        -1.649322     -0.035930     -1.115540
Ti       5.61799     13.08465      6.30412        -0.504883      0.478239     -0.649974
Ti       5.58856      1.83293     10.41218         0.802101      0.010751     -1.013733
Ti       5.58989     13.06508     10.40829         0.145326      1.192738     -0.539792
Ti       5.60782      5.60341      2.19734         0.613658      0.131510     -1.220324
Ti       5.62742      5.61709     14.53091        -0.326146      0.885754     -0.869766
Ti       5.60200      5.61766      6.31027         0.164323     -0.246978     -0.924138
Ti       5.59728      5.58864     10.34297         0.947820      1.801092      0.286477
Ti       5.58651      9.34104      2.20220         0.171343      0.693645      0.461666
Ti       5.64741      9.40686     14.49426        -0.812474     -1.576703     -1.680578
Ti       5.60749      9.34324      6.28358         0.682117      0.321724      0.297720
Ti       5.62335      9.35945     10.35466         0.293510     -0.310219      0.358392
Ti       9.34552      1.87717      2.19972         0.275094     -0.193036      0.206063
Ti       9.37307      1.87251     14.45500         0.112376     -0.399414      0.329147
Ti       9.34190     13.11793      2.23366        -0.006816      0.236738     -1.254046
Ti       9.34258     13.09818     14.49391         0.458511      1.573508     -1.134219
Ti       9.32207      1.88491      6.27405         1.201004     -0.270415      1.213501
Ti       9.36810     13.10122      6.25496         0.174207      0.210285      0.733367
Ti       9.38469      1.85325     10.37595        -1.005576      0.157648     -0.111813
Ti       9.36051     13.12888     10.39501        -0.577720     -0.989325     -0.591164
Ti       9.36357      5.61910      2.23784        -0.173760      0.275328     -1.487563
Ti       9.38986      5.58228     14.47671        -0.789849      0.908126     -0.590864
Ti       9.30814      5.64194      6.27958         0.986086      0.007942     -0.129499
Ti       9.33795      5.58230     10.37628         1.202139      1.529514     -1.222514
Ti       9.32915      9.36173      2.21171         0.206270      0.209559     -0.897137
Ti       9.33893      9.41630     14.50428         0.668577     -1.369978     -0.972107
Ti       9.32665      9.34070      6.29574         0.425162      0.169062      0.487659
Ti       9.36582      9.33575     10.44207        -0.408175      0.242715     -1.602191
O       1.93117      1.85382      0.41488        -0.410658     -0.039890     -0.377448
O       1.88578      1.89505     12.70858        -0.092290     -0.240613      0.335475
O       1.81123     13.08863      0.36412         0.079582      0.148947      0.187159
O       1.81942     13.13626     12.68961         0.067008     -0.156549     -0.164642
O      13.05594      1.81057      0.38597         0.462299      0.185452      0.128065
O      13.04898      1.79068     12.68005         0.559330      0.426086      0.134195
O      13.25784     13.06874      0.40468        -0.559480      0.383095     -0.613638
O      13.01087     12.99832     12.77414         0.556585      0.717902     -1.053974
O       1.84831      1.89114      4.53330        -0.130124     -0.070042     -0.964203
O       1.83910     13.13923      4.49223        -0.058674     -0.273630      0.245534
O      13.12076      1.91135      4.48681        -0.129635     -0.096088      0.295186
O      13.08526     13.09626      4.53368         0.138182      0.055999     -1.011587
O       1.84757      1.87489      8.59035         0.191958      0.075515      0.750249
O       1.90443     13.13718      8.56599        -0.390832     -0.006547      0.495149
O      13.08903      1.85321      8.61192        -0.046131      0.104343     -0.077916
O      13.15448     13.09836      8.57465        -0.352811      0.043759      0.461006
O       1.83844      5.70091      0.42839        -0.078498     -0.530718     -0.885533
O       1.86488      5.64038     12.66480         0.026447     -0.333107      0.265777
O      13.11602      5.63291      0.45760        -0.018222     -0.202902     -0.379493
O      13.09270      5.57844     12.74959         0.243194      0.144785     -0.766812
O       1.96270      5.57469      4.47559        -0.499025      0.188747      0.538898
O      13.16111      5.62924      4.48011        -0.405572     -0.244301     -0.142099
O       1.83145      5.58383      8.56860         0.387172      0.250993      0.594241
O      13.12550      5.56226      8.63731         0.040552      0.110938     -0.806701
O       1.90129      9.35692      0.43394        -0.013604      0.112185     -1.145324
O       1.84076      9.37238     12.70586         0.184082      0.192065     -0.706853
O      13.09621      9.31548      0.43158        -0.150939      0.477635     -0.049085
O      13.12076      9.34603     12.71865        -0.001103      0.027021     -0.733467
O       1.80593      9.32668      4.49845         0.282500      0.448450      0.297045
O      13.09554      9.34108      4.51382         0.115899      0.168453     -0.117944
O       1.92780      9.40160      8.55850        -0.256950     -0.413072      0.417457
O      13.07075      9.28535      8.54968         0.189973      0.622665      1.474153
O       5.60075      1.84064      0.33715        -0.008984      0.033208      0.612675
O       5.56260      1.81157     12.67197         0.197997      0.504136     -0.545278
O       5.67504     13.11181      0.44722        -0.499862     -0.049852     -1.258009
O       5.56514     13.12737     12.74243         0.273832     -0.139172     -0.534984
O       5.58036      1.92148      4.50042         0.531916     -0.230579     -0.024290
O       5.66131     13.07060      4.51337        -0.270304      0.150334      0.058352
O       5.58378      1.84819      8.59131         0.345010      0.096917      0.550663
O       5.62880     13.15346      8.62831        -0.057688     -0.050727     -0.322591
O       5.72917      5.65376      0.36477        -0.665892      0.021421      0.486483
O       5.67485      5.61205     12.71420        -0.230299     -0.011862      0.325982
O       5.59260      5.62902      4.50174         0.277278     -0.178026     -0.016362
O       5.52771      5.69595      8.56738         0.231451     -0.605900      0.063066
O       5.56655      9.36611      0.45759         0.071556      0.120455     -0.935805
O       5.55063      9.35377     12.67833         0.328025      0.308661      0.486428
O       5.61911      9.30401      4.53363        -0.021796      0.492590     -0.665194
O       5.65697      9.34788      8.58737        -0.534721      0.041539     -0.383896
O       9.35651      1.97939      0.46617         0.186826     -0.725810     -0.637432
O       9.35325      1.89193     12.71092         0.147351     -0.087521     -1.217989
O       9.31792     13.14878      0.42538         0.370061     -0.022049      0.345385
O       9.36349     13.10428     12.65338        -0.237531      0.120948      1.264230
O       9.36622      1.82543      4.56021        -0.118479      0.296489     -1.906383
O       9.44799     13.19765      4.49064        -0.228803     -0.439476     -0.563991
O       9.35549      1.86378      8.60253         0.104632      0.043592     -0.007803
O       9.35288     13.12944      8.58941        -0.001908     -0.076044     -0.096473
O       9.36361      5.60367      0.41874        -0.007621      0.019465      0.009382
O       9.35912      5.65637     12.65801        -0.065661     -0.508401      0.962966
O       9.33699      5.67075      4.48607         0.155929     -0.300381     -0.278232
O       9.30024      5.66917      8.56014         0.429259     -0.413671      0.381677
O       9.38907      9.39360      0.40343        -0.150623      0.088403      0.308752
O       9.43402      9.32756     12.69829        -0.734054      0.447736      0.438523
O       9.31571      9.36965      4.54573         0.033009     -0.131902     -1.053084
O       9.30188      9.34076      8.59785         0.389613      0.284801      0.604553
O       3.68048      1.93441      2.55453         1.024032     -0.472718     -0.316515
O       3.77833      1.85360     14.80521        -0.575165      0.052813     -0.170731
O       3.71456     13.11213      2.52127         0.148416     -0.396680     -0.072442
O       3.73065     13.13038     14.76481         0.306004     -0.182919      0.314921
O      14.98534      1.90066      2.50622         0.280370     -0.267426     -0.130129
O      14.99980      1.88096     14.80875         0.049148     -0.038667      0.001058
O       0.00076     13.13456      2.50091        -0.800130      0.012786      0.180563
O       0.00948     13.14309     14.73492        -1.163833     -0.137789      0.301895
O       3.82039      1.87224      6.55760        -1.479699      0.321765      0.505125
O       3.69217     13.07861      6.63612         0.876078      0.124288     -0.292223
O       0.02298      1.83867      6.61358        -1.636561      0.321083      0.048286
O      14.95257     13.15263      6.67027         0.939226     -0.240791     -0.379917
O       3.73345      1.80683     10.71738        -0.343922      0.729120     -0.197769
O       3.73307     13.12912     10.72149        -0.199657     -0.022976      0.057172
O       0.00810      1.92501     10.78730        -1.009453     -0.586031     -0.620673
O      14.98843     13.12263     10.67469        -0.557168     -0.059741      0.249140
O       3.80249      5.62823      2.44150        -1.424166      0.191525     -0.035312
O       3.67924      5.62233     14.90189         1.058032     -0.067404     -0.571801
O      14.97493      5.58464      2.48583         0.347322     -0.052370      0.127704
O      14.97354      5.63039     14.85943         0.279288     -0.262674     -0.288890
O       3.75251      5.56747      6.60972        -0.485871      0.269880      0.104972
O      14.98417      5.70021      6.61941         0.247413     -0.660525     -0.185267
O       3.77341      5.66747     10.76772        -0.688910     -0.372037     -0.594381
O       0.01808      5.60179     10.75037        -0.713904      0.089688     -0.347699
O       3.72999      9.38708      2.56349        -0.265540      0.085992     -0.236896
O       3.75072      9.36075     14.78873        -0.030466      0.036435      0.248767
O      14.96094      9.36332      2.50721         0.555635      0.132311     -0.040740
O       0.01018      9.36813     14.77755        -0.354401     -0.026083      0.209168
O       3.71706      9.36588      6.57769         1.075966      0.047388      0.017309
O      14.99950      9.32069      6.62429         0.170091      0.311378     -0.064273
O       3.75171      9.37129     10.68790        -0.611733     -0.046939     -0.082032
O      14.98783      9.32249     10.67064        -0.140290      0.276608     -0.030949
O       7.41014      1.77867      2.52612         1.776704      0.462952      0.064368
O       7.53702      1.85992     14.80625        -1.421129      0.226616     -0.342112
O       7.48179     13.09681      2.45150         0.147164      0.435364      0.593640
O       7.48590     13.07811     14.87836        -0.030663      0.123848     -0.606313
O       7.50599      1.85043      6.62572        -0.048845     -0.025814      0.068527
O       7.48501     13.17647      6.58261         0.600028     -0.342479     -0.124056
O       7.50350      1.80739     10.78695         0.055383      0.699102     -0.595692
O       7.42982     13.16012     10.76124         0.773685     -0.387591     -0.108293
O       7.52210      5.58522      2.44992        -0.827470      0.268119      0.586614
O       7.48616      5.64903     14.83970         0.602202     -0.491973     -0.468650
O       7.47683      5.63116      6.61649        -0.280772     -0.277134     -0.132127
O       7.55185      5.68087     10.64230        -2.147497     -0.420153      0.238276
O       7.45294      9.34831      2.56154         0.305731      0.329888     -0.255732
O       7.47040      9.38538     14.83880         0.663594      0.430384     -0.178138
O       7.44506      9.32468      6.71541         0.415692      0.589868     -0.908733
O       7.47714      9.31260     10.72015         0.073801      0.596135      0.170738
O      11.24715      1.89099      2.48060        -0.805551     -0.247407      0.352187
O      11.29701      1.81219     14.74969        -1.531357      0.228003      0.393168
O      11.28555     13.06735      2.42660        -0.868734      0.235387      0.171119
O      11.23131     13.15238     14.82070        -0.246679      0.071378      0.295628
O      11.22227      1.92491      6.58629         0.161179     -0.256380      0.054360
O      11.29728     13.14473      6.66406        -1.400501     -0.214183     -0.280520
O      11.24005      1.87595     10.82978        -0.553762     -0.169792     -1.126920
O      11.18764     13.04157     10.70724         0.859214      0.577268     -0.371351
O      11.21986      5.61195      2.43178         0.752713     -0.158594      0.719085
O      11.21727      5.62321     14.82602         0.017897     -0.046632     -0.161500
O      11.25837      5.62958      6.61521        -0.527128     -0.343148     -0.296023
O      11.25792      5.59293     10.76054         0.030738     -0.076429     -0.526405
O      11.19686      9.45918      2.59232         0.405007     -0.560507     -0.386070
O      11.18942      9.35888     14.81663         0.434520      0.296855      0.118069
O      11.25739      9.41591      6.61197        -0.683927     -0.374377     -0.229777
O      11.19491      9.39886     10.74179         1.417816     -0.155203     -0.367904
O       1.86516      3.76338      2.50720        -0.189848     -0.502159     -0.246435
O       1.88898      3.71656     14.84024        -0.276214      0.588701     -0.086514
O       1.92082     14.94414      2.50836        -0.566311      1.278189     -0.151010
O       1.86188     14.99831     14.84127        -0.023169      0.202653     -0.184998
O      13.06070      3.68458      2.53232         0.256988      1.550191     -0.068528
O      13.08668      3.77258     14.78459         0.222486     -0.859460      0.184223
O      13.12022      0.01536      2.56554        -0.033644     -1.055040     -0.393625
O      13.11136     15.00026     14.70679         0.346274     -0.198904      0.632800
O       1.80744      3.72610      6.60309         0.274063      0.789577      0.275071
O       1.87318      0.04806      6.56887         0.058984     -1.920758      0.354888
O      13.14866      3.73391      6.70430        -0.014491      0.202301     -0.641926
O      13.17449      0.01088      6.59437        -0.630561     -0.171488     -0.103731
O       1.80763      3.77690     10.73238         0.838720     -0.898301     -0.289867
O       1.87942     14.94241     10.68745        -0.369695      1.821019      0.173357
O      13.07067      3.73874     10.70012         0.380014     -0.063570      0.085872
O      13.08966     14.96616     10.64627        -0.065133      0.873200      0.308446
O       1.83818      7.49412      2.46373         0.113679      0.099328      0.283052
O       1.85188      7.45425     14.78718         0.085494      0.895320     -0.038474
O      13.15485      7.50692      2.56578        -0.648602     -0.410258     -0.303861
O      13.04618      7.52311     14.85998         0.355158     -0.930901     -0.267494
O       1.84039      7.47187      6.51557         0.515576      0.531279      0.492997
O      13.07736      7.45365      6.73466         0.260318      0.567228     -0.924134
O       1.85565      7.50681     10.77195         0.109737     -0.532960     -0.625018
O      13.08616      7.47215     10.71740         0.152873      0.084996     -0.126269
O       1.79923     11.24785      2.50753         0.331381     -0.418124      0.068857
O       1.84829     11.24730     14.87684         0.210910     -0.084694     -0.527486
O      13.14449     11.21665      2.54266        -0.007239      1.309660     -0.135678
O      13.09275     11.22049     14.75172         0.086905      0.687628      0.701330
O       1.84624     11.29297      6.63003        -0.228419     -1.708336     -0.306964
O      13.13511     11.22658      6.61702         0.067276      0.602969     -0.060454
O       1.82467     11.24555     10.66171         0.166873     -0.457836      0.223771
O      13.04606     11.24864     10.71791         0.644277     -0.564501     -0.301350
O       5.59999      3.74172      2.43959         0.378551     -0.190672      0.173855
O       5.60252      3.76553     14.81923         0.016516     -0.701621     -0.434476
O       5.55615      0.00315      2.52267         0.014896     -0.477523     -0.078196
O       5.63010     15.00779     14.79741         0.100450     -0.265390     -0.158995
O       5.60954      3.71647      6.62734         0.497593      0.687795      0.101193
O       5.51241     14.95091      6.58351         0.761551      0.411723      0.036716
O       5.62119      3.78337     10.74981         0.105557     -1.077799     -0.465058
O       5.63877      0.02344     10.72174        -0.303246     -0.766514     -0.044072
O       5.64129      7.49955      2.56290        -0.234978     -0.124969     -0.467974
O       5.64576      7.52636     14.79728        -0.318750     -0.546276      0.138766
O       5.65115      7.48958      6.61468        -0.716947      0.071027     -0.203032
O       5.65651      7.51577     10.69558        -0.466903     -0.954962     -0.072934
O       5.62386     11.28973      2.59838        -0.174848     -1.542015     -0.353752
O       5.60619     11.19584     14.81883        -0.070218      1.801572      0.105862
O       5.58251     11.24872      6.73409         0.246487     -0.640698     -0.855116
O       5.57134     11.24495     10.70695         0.377567     -0.320313      0.050039
O       9.30329      3.73167      2.54435         0.291391     -0.183557      0.253486
O       9.33941      3.68397     14.91350         0.441177      1.502794     -0.935430
O       9.35054     15.00783      2.58135         0.305123     -0.164469     -0.409061
O       9.30890      0.03105     14.86782         0.514264     -1.039379     -0.257781
O       9.35644      3.80360      6.63341        -0.163181     -1.279924     -0.230537
O       9.39451     14.98570      6.60154         0.034291      0.276256     -0.000302
O       9.33959      3.77535     10.69756         0.136866     -1.789007     -0.085461
O       9.31996     14.96548     10.67516         0.471323      1.248609      0.010826
O       9.38085      7.51043      2.50482        -0.024405     -0.052930      0.026257
O       9.28039      7.53010     14.77955         0.434945     -0.813130      0.019551
O       9.33992      7.50239      6.62662         0.247660     -0.287403     -0.304744
O       9.39833      7.49575     10.70870         0.087759     -0.413413      0.041249
O       9.30074     11.23114      2.52576         0.282609      0.697915      0.078956
O       9.41085     11.30978     14.89534        -0.386951     -1.007364     -0.505348
O       9.36445     11.20271      6.56567        -0.157948      1.437869      0.092572
O       9.28871     11.22761     10.75395        -0.087867      0.404274     -0.366318
