  # total energy = -7878.46361331 
CRSYTAL
PRIMVEC
    15.2000000000000000    0.0000000000000000    0.0000000000000000
     0.0000000000000000   15.2000000000000000    0.0000000000000000
     0.0000000000000000    0.0000000000000000    17.000000000000000
PRESSURE
7.9589 7.85638 2.42514 0.334872 -0.071363 0.100745
PRIMCOORD
320 1
Pb       3.70251      3.87150      4.22185         0.289555     -0.464968      0.485997
Pb       3.91074      3.93248      0.01966        -0.535968     -0.401260     -0.220644
Pb       3.68133      0.13194      4.35749         0.049851     -0.636419      0.233294
Pb       3.92749     15.16330      0.03072        -0.130491      0.461127     -0.173535
Pb       0.00335      4.09032      4.30150        -0.109635     -1.281037     -0.247173
Pb      15.13279      3.68991      0.03223         0.688183      0.270984     -0.025232
Pb       0.07821      0.17706      4.21795        -0.093590     -0.369098      0.710207
Pb      15.18617     15.12807     16.94932        -0.233895      0.457286     -0.096164
Pb       4.07792      3.58005      8.45841        -0.767068      1.166343      0.391038
Pb       3.80146     15.07846      8.63711        -0.230409      0.044703     -0.605730
Pb       0.01132      3.76645      8.45528         0.335307      0.279933      0.268354
Pb      15.19470     15.08376      8.67093         0.212221      0.034183     -0.504342
Pb       3.75464      3.82579     12.76261        -0.332012     -0.258257     -0.120875
Pb       3.70079     15.14137     12.80546         0.198339      0.155243     -0.210659
Pb       0.04204      3.65667     12.72210         0.131969      0.277091      0.018563
Pb       0.00819      0.01128     12.79222         0.146411      0.243939     -0.215852
Pb       3.76837      7.49960      4.25103         0.034748      0.188283     -0.114815
Pb       3.90536      7.61784      0.19855        -0.244309     -0.270746     -1.017065
Pb      15.16209      7.56708      4.11008        -0.276293      0.911943      0.557567
Pb       0.04189      7.55498     16.87191         0.026459      0.142250      0.825622
Pb       3.82528      7.60656      8.38588        -0.167070     -0.399805      0.584297
Pb      15.07314      7.48606      8.41176         0.553435      0.352214      0.484843
Pb       3.68261      7.50930     12.67222         0.471095      0.220241      0.641873
Pb      15.10989      7.52288     12.63020         0.425555     -0.018905      0.684026
Pb       3.57889     11.44404      4.27016         0.238909      0.241033      0.157925
Pb       3.92913     11.35334      0.22235        -0.292651     -0.369974     -0.836098
Pb      15.04940     11.47842      4.23581         0.257530     -0.123128      0.107252
Pb       0.05227     11.44133      0.01704        -0.015530     -0.298237     -0.077542
Pb       3.87295     11.39748      8.49607        -0.414372     -0.104511      0.079595
Pb      15.04428     11.27454      8.56014         0.675434      0.443040      0.038520
Pb       3.59276     11.21596     12.91018         0.693856      0.631555     -0.721183
Pb      15.11818     11.26314     12.69505         0.046095      0.306013      0.062949
Pb       7.44873      3.63374      4.12004         0.532451      0.709492      0.300230
Pb       7.58279      3.81690     16.97411         0.179679     -0.227024     -0.002718
Pb       7.53029     15.15008      4.31625         0.052718     -0.301635     -0.413009
Pb       7.61593     15.08232      0.04269         0.151617      0.421303     -0.086598
Pb       7.76438      3.78934      8.30593        -0.636761      0.220640      0.762861
Pb       7.59002     15.13024      8.38764        -0.089388     -0.042083      0.222000
Pb       7.47484      3.80044     12.72684         0.643351      0.112516     -0.056192
Pb       7.64644      0.17351     12.68510        -0.244370     -0.912717     -0.083746
Pb       7.69952      7.45995      4.39838        -0.385545      0.421447     -0.782576
Pb       7.46519      7.67334     16.91348         0.400215     -0.378877      0.435622
Pb       7.63279      7.64373      8.41973        -0.415970     -0.735614      0.853878
Pb       7.56974      7.62522     12.80934         0.013558     -0.090398     -0.465589
Pb       7.52185     11.18684      4.20432         0.183396      0.619149      0.094409
Pb       7.78099     11.45973     16.94969        -0.744381     -0.301164      0.312154
Pb       7.50673     11.46817      8.39196        -0.139972      0.084894      0.304857
Pb       7.50545     11.27539     12.69081        -0.162812      0.428555     -0.126362
Pb      11.37752      3.79262      4.13262         0.085066     -0.091385      0.129444
Pb      11.42363      3.75104      0.03104        -0.321134     -0.155563      0.034198
Pb      11.44043     15.15307      4.26907        -0.539299     -0.148446      0.369789
Pb      11.42443     15.00457     16.93332        -0.408680      0.701312      0.134459
Pb      11.43210      3.73239      8.45358        -0.102706      0.172074      0.222739
Pb      11.33122      0.01348      8.41213        -0.379824     -0.285086     -0.187637
Pb      11.33875      3.78874     12.79077         0.155497     -0.039605     -0.239348
Pb      11.42097      0.06084     12.72773        -0.358631     -0.188825      0.082529
Pb      11.48297      7.60532      4.13578         0.071407      0.315486      0.561270
Pb      11.25133      7.47963     16.89785         0.425500      0.713034     -0.051581
Pb      11.33378      7.55307      8.34106         0.493801      0.303652      1.241062
Pb      11.28485      7.50874     12.58964         0.160600      0.600067      0.523458
Pb      11.41185     11.26480      4.24303        -0.327871      0.735401      0.626539
Pb      11.43460     11.50203     16.88688        -0.550110     -0.542487      0.156889
Pb      11.43631     11.44516      8.62147        -0.384113     -0.041332     -0.439491
Pb      11.36137     11.33486     12.73771         0.010970      0.199301      0.051000
Ti       1.96486      1.94242      2.30202        -1.112595      0.385875     -1.183700
Ti       1.92757      1.85608     15.13490         0.142116      1.552935     -0.490928
Ti       1.87289     13.39317      2.16384         0.080881     -0.595577      0.543154
Ti       1.91801     13.29709     15.00636        -0.446391     -0.197550      0.089838
Ti      13.30169      1.90809      2.31487         0.434176      0.970773     -0.952940
Ti      13.25802      1.94767     15.02184         0.629104     -0.777653     -0.790863
Ti      13.28967     13.38504      2.26406        -0.369379     -0.623614      0.771708
Ti      13.27112     13.26951     14.92401        -0.462645      0.441771     -1.038677
Ti       1.89202      1.92557      6.62580         0.048601     -0.913604     -1.054059
Ti       1.80420     13.24111      6.61173         0.218900      1.082186     -1.377052
Ti      13.28954      1.87026      6.56247         0.476032      0.349907     -1.179896
Ti      13.24423     13.37439      6.46288        -0.278826     -0.364773     -0.508319
Ti       1.90350      1.90800     10.66044        -0.240651     -0.577388      0.353916
Ti       1.83797     13.24296     10.80645         0.393525     -0.091922     -0.245455
Ti      13.24663      1.87183     10.63558         0.899595      0.402006     -0.583185
Ti      13.23431     13.38576     10.81199        -0.211487     -1.454383      0.283796
Ti       1.87853      5.72666      2.23606         0.266384     -0.300792     -1.489285
Ti       1.90917      5.67682     14.95727         0.719097     -0.407812      0.418579
Ti      13.27282      5.75682      2.16860         1.202248     -0.477049     -1.657389
Ti      13.37458      5.70752     14.99529        -0.330484      0.243449      0.092867
Ti       1.95460      5.70953      6.51397         0.235780     -0.171399      0.193809
Ti      13.27644      5.66156      6.47506         1.235270     -0.004298     -0.515898
Ti       1.96663      5.70622     10.60011        -0.973662     -0.707524      0.303685
Ti      13.36430      5.63796     10.71079        -0.036904      0.227069     -0.390050
Ti       1.81072      9.59195      2.37820        -0.518491      0.031329     -0.599773
Ti       1.89520      9.50177     15.05015        -0.186203     -0.788942      1.075729
Ti      13.20542      9.59918      2.08446         1.024921     -0.450172      2.193174
Ti      13.28334      9.51087     14.96593        -0.176663     -0.952414     -0.435276
Ti       1.79819      9.48698      6.44636         0.486655      0.262189      1.228842
Ti      13.23720      9.57671      6.53523        -0.568810     -0.632546     -1.029255
Ti       1.89840      9.45053     10.64307        -0.645871     -0.057237     -0.435876
Ti      13.30128      9.47832     10.76722        -0.758082      0.407977     -0.678657
Ti       5.67963      1.80961      2.26884         0.159315      0.914582     -0.838387
Ti       5.73395      1.87288     14.99983        -0.124915      0.299939      0.434364
Ti       5.65327     13.29084      2.30082         0.560688     -0.097079      0.535373
Ti       5.65509     13.31891     14.94805        -0.088998     -1.053359     -1.648568
Ti       5.69890      1.84146      6.45737        -0.280798     -0.322899     -0.844326
Ti       5.53373     13.25205      6.36447         1.064232      0.029218      0.920311
Ti       5.68422      1.92232     10.77772         0.336095     -0.513092     -0.342933
Ti       5.60035     13.35870     10.79346         0.253518     -1.279105     -0.027500
Ti       5.67492      5.69197      2.24346         0.432470      0.513497     -0.905510
Ti       5.73526      5.66101     14.84925        -0.761237      0.800599      1.211913
Ti       5.76953      5.67218      6.49457        -0.226480     -0.612032      0.401968
Ti       5.75943      5.70983     10.76802        -0.421314      0.569815     -0.392767
Ti       5.63168      9.46915      2.34102         0.847011     -0.276673     -0.745318
Ti       5.63540      9.50182     14.98200        -0.006420      0.058331      0.668674
Ti       5.61678      9.40649      6.44803        -0.085708      0.648236     -0.139124
Ti       5.61222      9.50170     10.69700         0.392724     -0.072993      0.569501
Ti       9.56806      1.83798      2.25238        -0.811406      0.212318     -1.163431
Ti       9.50469      1.91659     14.97686        -0.078068     -0.391829      0.515872
Ti       9.46124     13.25215      2.30543        -0.331402     -0.553954     -0.333723
Ti       9.37715     13.39463     14.82256         0.662678     -1.047379      0.328574
Ti       9.46848      1.89828      6.34917         0.371108     -0.698821      1.693364
Ti       9.38189     13.24036      6.35273         0.950105      0.582621     -0.378993
Ti       9.50429      1.92138     10.65931        -1.116260     -0.255716     -0.061180
Ti       9.39156     13.22239     10.75219        -0.242835      0.848789      0.460423
Ti       9.46800      5.74905      2.23006        -0.353425     -1.019365     -0.924606
Ti       9.47408      5.69923     14.97474         0.091945      0.203195      0.135111
Ti       9.58602      5.67471      6.39468        -0.647690      0.439631      0.428676
Ti       9.53837      5.63839     10.70929        -1.165732      0.322457     -0.331891
Ti       9.46454      9.42154      2.27727        -0.541670      1.181822     -0.481659
Ti       9.41732      9.53998     14.98737         1.007289     -0.409368     -1.427511
Ti       9.43083      9.50271      6.53648         0.348351      0.158371     -0.391345
Ti       9.49963      9.51179     10.65285        -0.230067     -0.609052      1.535883
O       1.85437      2.00135      0.51902         0.253223     -0.677293     -0.075531
O       1.98160      1.90608     13.33561        -0.515652      0.012770     -0.230859
O       1.85192     13.29823      0.35829         0.233600      0.404333      0.653536
O       1.81752     13.28746     13.20305         0.125348      0.063846      0.416290
O      13.26544      2.03112      0.48114        -0.188618     -0.457327      0.411366
O      13.30619      1.82708     13.20257         0.018133      0.428680      0.049891
O      13.24982     13.31544      0.50354        -0.279413     -0.004844     -0.562680
O      13.13809     13.34628     13.10887         0.894565      0.031420      0.675526
O       2.02979      1.81502      4.75293        -0.795748      0.316572      0.815515
O       1.84153     13.44369      4.76353        -0.268202     -0.632010      1.590158
O      13.21035      1.84995      4.73307        -0.046623      0.316152      0.315228
O      13.25190     13.37725      4.66125         0.149153      0.104889      0.415347
O       1.88300      1.93522      8.88859         0.164371     -0.219473     -0.368049
O       1.89431     13.23591      9.00976         0.158640      0.170545     -0.111980
O      13.30512      1.72643      8.79464        -0.217844      0.525034      1.572291
O      13.21655     13.34253      9.03152        -0.269806      0.006639     -0.680151
O       1.89187      5.70736      0.44622         0.200055      0.015406      0.775476
O       1.95562      5.65531     13.16090        -0.256953     -0.302514      0.415922
O      13.39783      5.75297      0.32525        -0.403068     -0.263321      1.359685
O      13.53489      5.52623     13.22887        -0.768219      0.391568     -0.832879
O       1.97841      5.68040      4.66494        -0.392885      0.239461      0.519281
O      13.40794      5.70282      4.66063        -0.683291     -0.052726      0.375683
O       1.79870      5.85202      8.83439         0.437232     -0.795585      0.251586
O      13.43950      5.74617      8.92375        -0.567137     -0.451810      0.572951
O       1.77859      9.76897      0.63105         0.336881     -0.536309     -0.767154
O       1.82967      9.48893     13.30187         0.050503      0.141638     -0.295960
O      13.14583      9.65513      0.37196         0.314694     -0.269142     -0.242981
O      13.40608      9.47743     13.10209        -0.368888      0.245307      1.322707
O       1.71146      9.51519      4.65613         0.808285      0.061294      0.601080
O      13.24543      9.53035      4.70643        -0.253639     -0.054704      1.695959
O       1.83146      9.52342      8.86948         0.076599     -0.274957      0.836635
O      13.23519      9.50861      8.92146         0.084011      0.401099      0.092484
O       5.66045      1.87899      0.45057         0.241589     -0.214437      0.689015
O       5.73047      1.93994     13.20886         0.007150     -0.171310     -0.001774
O       5.68963     13.40122      0.49095        -0.308262     -0.191163      0.157435
O       5.58606     13.32152     13.10567         0.179885     -0.142617      1.839461
O       5.68385      1.85866      4.64671        -0.003473      0.401688      0.496038
O       5.67092     13.34334      4.63617        -0.107150     -0.481717     -1.054791
O       5.69135      1.82830      8.97069        -0.051635      0.192309     -0.019600
O       5.59338     13.28364      8.92542        -0.003369      0.370278      0.502360
O       5.55968      5.71110      0.42040         0.649977      0.278933      0.752466
O       5.69508      5.62757     13.08344        -0.165636     -0.056423      0.025847
O       5.74911      5.61609      4.73981        -0.055855      0.519686     -1.173166
O       5.75646      5.67647      8.98758        -0.098716      0.073344     -0.176475
O       5.62350      9.38383      0.49840         0.053070      0.441737      0.559193
O       5.57384      9.55974     13.23624         0.170949      0.118857     -0.751397
O       5.52394      9.33868      4.66619         0.418182      0.233077     -0.182583
O       5.64887      9.32516      8.90984         0.000725      0.551917      0.953548
O       9.72219      1.97177      0.45053        -0.658755     -0.498005      0.358568
O       9.50983      1.81920     13.19779        -0.117185      0.234897     -0.228443
O       9.40627     13.13007      0.41656         0.195681      0.788749      0.954984
O       9.35476     13.34967     13.06574         0.248365      0.191342     -0.040039
O       9.54231      1.86840      4.63813        -0.037623     -0.108405     -1.321490
O       9.32700     13.38141      4.53735         0.261713     -0.684802      1.107497
O       9.47547      2.02705      8.85779         0.152588     -0.108485      0.391851
O       9.33894     13.16319      8.96710         0.348808      0.185314      0.013132
O       9.53438      5.76785      0.40919        -0.191963     -0.255327      0.952515
O       9.49509      5.81469     13.19880         0.089222     -0.347096     -0.333394
O       9.55368      5.79703      4.64017        -0.026023      0.003272     -0.702977
O       9.58297      5.61189      8.91129        -0.142225     -0.463514      0.401348
O       9.41628      9.43649      0.51600         0.169164      0.266428     -0.901610
O       9.41136      9.43764     13.14672         0.400012     -0.096388      1.268217
O       9.49664      9.44238      4.75079        -0.296957     -0.108330      0.167774
O       9.44782      9.60435      8.91449        -0.016640     -0.081747     -0.832960
O       3.79576      1.91669      2.74596         0.129978      0.196915     -0.688317
O       3.83403      1.99516     15.43632         0.249383     -0.630000     -0.235926
O       3.70933     13.15607      2.71285         0.604869      0.755115     -1.032746
O       3.78465     13.49789     15.33907        -0.324855     -0.628393     -0.112422
O      15.16986      1.96783      2.59233        -0.108940     -0.714522      0.279278
O      15.16179      1.87292     15.39564         0.056969      0.215624      0.097375
O      15.16729     13.44198      2.50152        -0.799263      0.059901      0.168285
O      15.09388     13.33659     15.35271         1.051310     -0.054676     -0.157449
O       3.81874      1.83422      6.90762         0.501794      0.068737      0.033001
O       3.73323     13.16330      6.84784        -0.137473      0.758763      0.054700
O       0.01644      1.93141      6.81415        -0.007777     -0.015666      0.033798
O      15.14562     13.32024      6.98876        -0.408712     -0.364802     -0.216406
O       3.78517      1.86384     11.12724         0.328406      0.142708     -0.248560
O       3.69678     13.37007     11.22385         0.560641     -0.088315     -0.484905
O      15.15316      1.95609     11.04722         0.071131     -0.376220     -0.022763
O      15.16259     13.31857     11.00925        -0.152657     -0.286591      0.534572
O       3.77893      5.60585      2.63039        -0.460638      0.700749     -0.013204
O       3.90896      5.68036     15.36756        -0.977895     -0.175415     -0.483877
O       0.01387      5.74261      2.59721        -0.620600     -0.331893      0.065762
O       0.05680      5.85010     15.32793        -0.416690     -1.077378     -0.170182
O       3.90622      5.73728      6.80816        -1.519294     -0.186886      0.026044
O       0.02027      5.69825      6.77048        -0.057616     -0.228819     -0.071306
O       3.73152      5.63765     11.13253         1.182800     -0.187903     -0.407094
O       0.04212      5.75627     11.04052        -0.888779     -0.508854     -0.083698
O       3.71504      9.70114      2.53283         0.188953     -0.367440      0.479366
O       3.79824      9.51500     15.48030        -0.946257      0.068333     -0.110252
O      15.12358      9.61154      2.72308        -1.087083     -0.203257     -0.759508
O      15.15925      9.52417     15.49635         0.809267      0.360863     -0.588167
O       3.81245      9.51198      6.90582        -1.364298     -0.632182     -0.495692
O      15.11614      9.61875      6.84076         0.011891     -0.667586     -0.175482
O       3.67854      9.50177     11.20766         1.598024     -0.397437     -0.489888
O      15.19405      9.45251     11.08650         0.541082      0.182855     -0.199934
O       7.56441      1.84754      2.66233         0.093063     -0.052252     -0.513333
O       7.68078      1.81700     15.44936        -1.241116      0.175553     -0.130686
O       7.51583     13.41938      2.60636        -0.236933     -0.281448     -0.192788
O       7.52436     13.40198     15.26445         0.408511     -0.249834      0.313886
O       7.56513      1.86859      6.77285         0.777311      0.220579     -0.051204
O       7.59310     13.25383      6.84639        -1.223200      0.261965     -0.179390
O       7.61353      1.90431     11.05628        -0.467824      0.176375      0.213171
O       7.44898     13.15924     11.10250         1.790416      0.224478     -0.190674
O       7.57913      5.82755      2.52162         0.277819     -0.134125      0.264914
O       7.58954      5.78162     15.22761        -0.009575     -0.565411      0.406751
O       7.68179      5.73445      6.85860         0.084064     -0.010161     -0.332611
O       7.57975      5.68821     11.11837         0.983825      0.316452     -0.017673
O       7.57113      9.34211      2.66052        -1.124124     -0.431898      0.401229
O       7.56992      9.52018     15.25702        -0.238536      0.065390      0.406198
O       7.47470      9.35915      6.86721         1.186368      0.650802     -0.448139
O       7.58431      9.37781     11.17535        -0.475183      0.881550     -0.801425
O      11.37033      2.00966      2.55104         0.309259     -0.014749      0.707055
O      11.39899      2.01711     15.15731        -0.506160     -0.250077      0.712634
O      11.30255     13.21251      2.59370         0.190178     -0.099102     -0.048414
O      11.36348     13.22136     15.25736        -0.207182      0.410775      0.200520
O      11.39517      1.89752      6.90163        -0.650732      0.086062     -0.378195
O      11.29207     13.41385      6.70938         0.680113     -0.335209      0.470461
O      11.33622      1.91498     11.05270         1.136174     -0.165393     -0.023307
O      11.31206     13.23786     11.15389         0.595087      0.718092     -0.498418
O      11.47440      5.74741      2.43265        -1.760485     -0.131847      0.491973
O      11.40386      5.84712     15.19788        -0.007524     -0.514688      0.144075
O      11.44558      5.61952      6.82769        -0.801954     -0.171029     -0.016336
O      11.38410      5.63413     11.11080         0.794402     -0.138529      0.080586
O      11.38375      9.55338      2.72914        -0.295456     -0.381700     -0.927160
O      11.36703      9.51679     15.35496        -0.198565     -0.035350     -0.422344
O      11.30285      9.54636      6.89820         0.805352     -0.050440     -0.017255
O      11.41406      9.61423     11.11245        -0.512625     -0.887445     -0.286197
O       1.83374      3.79406      2.58355         0.224230      0.667232      0.572648
O       1.85225      3.81866     15.40249        -0.038113     -0.056979     -0.151440
O       1.85581      0.03381      2.69255         0.514062     -0.036448     -0.640755
O       1.80235      0.00772     15.32867         0.197059     -0.521397      0.379120
O      13.25121      3.83094      2.68992         0.356837      0.413361     -0.386863
O      13.24894      3.81105     15.36378         0.474306      0.481085     -0.018518
O      12.98993      0.04548      2.59350         1.101013     -0.365409     -0.469513
O      13.20820      0.00501     15.34726        -0.052940     -0.336253      0.191348
O       1.99049      3.84526      6.80742        -0.187185     -0.453987      0.232264
O       1.96199     15.18766      6.97243        -0.357612     -0.284602      0.100334
O      13.34110      3.79387      7.02996        -0.263598     -0.118563     -0.784420
O      13.32240      0.01677      6.81928        -0.203862     -0.463073      0.266382
O       1.82992      3.71750     10.99361         0.357822      1.463969      0.352120
O       1.85589      0.00097     11.07788        -0.252087      0.146194      0.170241
O      13.22731      3.73964     10.93863         0.239956      0.755353      0.158088
O      13.45601      0.05027     11.07333        -1.174348     -0.276182      0.200607
O       1.81974      7.63002      2.57192         0.691746      0.264322      0.111158
O       1.93009      7.53670     15.36448         0.226037      1.759748      0.116912
O      13.28833      7.64351      2.54221         0.104545      0.379456     -0.227589
O      13.40628      7.62173     15.29954        -0.636138      0.411625     -0.151513
O       1.87330      7.58188      6.94343         0.038174      1.131401     -1.222040
O      13.18755      7.49728      6.85844         0.388939      1.611860     -0.367136
O       1.95342      7.52333     11.12868        -0.491399      1.089286     -0.491456
O      13.23406      7.64644     11.02268         0.092402     -1.886268      0.307106
O       1.71494     11.56951      2.71897         0.120473     -0.758970     -0.014162
O       1.90203     11.43738     15.46546         0.086177     -0.124331     -0.711758
O      13.15155     11.44221      2.73729         0.976916      0.241945     -0.987189
O      13.28766     11.38735     15.37545         0.085975      0.535587     -0.568858
O       1.89453     11.33145      6.99768        -0.341254      0.262776     -0.948720
O      13.16833     11.46861      6.78355         0.183558     -0.420506      0.421044
O       1.94691     11.31085     11.16544        -0.786257      0.653402     -0.131370
O      13.29673     11.39913     11.11897         0.238804      0.355072     -0.161542
O       5.67408      3.87281      2.51478         0.352780     -1.659900      0.388912
O       5.82299      3.80253     15.36687        -0.004481     -0.365296     -0.217557
O       5.59855      0.01733      2.60875        -0.300443     -0.769267     -0.150005
O       5.71600      0.00039     15.34486        -0.234946      0.460503      0.198010
O       5.71909      3.74777      6.79491         0.160592     -0.025906      0.292405
O       5.74293     15.11932      6.63846        -0.277069      0.666479      0.855489
O       5.74104      3.82813     11.08908        -0.505009     -1.025789      0.015409
O       5.77496     15.19339     11.07253        -0.456677      0.854281      0.092380
O       5.51469      7.57557      2.53891        -0.425638      0.170089      0.518156
O       5.75056      7.60351     15.29663        -0.465555     -0.065316     -0.121161
O       5.67728      7.51149      6.86347         0.215718      1.012030     -0.179371
O       5.64423      7.59781     11.25477        -0.288304      0.363934     -0.693921
O       5.76266     11.35449      2.59195        -0.163152      0.606267     -0.040124
O       5.66063     11.39842     15.44162        -0.141334      0.908130     -0.262960
O       5.57328     11.39132      6.74673         1.006994     -0.967943      0.151726
O       5.61248     11.41985     11.00374        -0.201921     -1.742615      0.074869
O       9.41228      3.78521      2.57097         0.198686      1.017062      0.136347
O       9.40627      3.78682     15.42234         0.463164      0.833589     -0.580737
O       9.47063     15.13718      2.54166         0.284992      0.819193     -0.266298
O       9.52760     15.17170     15.34163         0.345881      0.618514      0.125379
O       9.49098      3.82013      6.57927         0.010620     -0.722334      0.649606
O       9.44385      0.00666      6.82018        -0.149356     -0.006976     -0.088785
O       9.37390      3.78041     11.28282         0.919012      0.143567     -0.766571
O       9.44064      0.01150     10.99339         0.009313     -0.214037     -0.123321
O       9.50283      7.62128      2.66703         0.538839     -1.578954      0.162621
O       9.37396      7.59843     15.44588         0.563756      0.559602     -0.538426
O       9.55819      7.57255      6.90024        -0.408013      0.125823     -0.494233
O       9.53149      7.56921     10.93701         0.278167      0.063096      0.279929
O       9.15072     11.27033      2.55122         1.052731      1.602741      0.300939
O       9.38641     11.48641     15.16862         0.123507     -1.000635      0.430036
O       9.36122     11.39059      6.78485         0.277423     -0.194842     -0.099559
O       9.61487     11.35254     11.12971        -1.284868      0.215907     -0.179192
