  # total energy = -7864.86775702 
CRSYTAL
PRIMVEC
    15.010000000000000    0.0000000000000000    0.0000000000000000
     0.0000000000000000   15.010000000000000    0.0000000000000000
     0.0000000000000000    0.0000000000000000    16.400000000000000
PRESSURE
17.0926 17.1467 7.71578 -0.059467 -0.114662 0.074755
PRIMCOORD
320 1
Pb       3.63873      3.62810      4.07624         0.552804      0.244747     -0.340439
Pb       3.62592      3.71346     16.37839         0.685897      0.250366     -0.423621
Pb       3.80256     14.92021      4.14780        -0.147478      0.035655     -0.179888
Pb       3.84195     14.98740      0.10548        -0.393974     -0.212033     -0.771105
Pb      14.97793      3.81491      4.19833        -0.158521      0.210597     -0.243869
Pb      14.89876      3.65921      0.16292         0.174918      0.198568     -1.080066
Pb      14.88641      0.01729      4.26683         0.825980      0.080410      0.008716
Pb       0.06202     15.00761      0.13594        -0.144787     -0.089058     -1.155121
Pb       3.53981      3.71092      8.23689         0.508757      0.388043     -0.130250
Pb       3.72405      0.19174      8.25229        -0.320188     -0.782646     -0.784934
Pb      14.81966      3.71964      8.24405         0.162311     -0.141966      0.034444
Pb      14.90379      0.03675      8.22243         0.169964     -0.126108     -0.266400
Pb       3.75490      3.63902     12.42405        -0.324541      0.590505     -0.146326
Pb       3.63813     14.99047     12.30456         0.517766     -0.364757     -0.024150
Pb      14.89062      3.79933     12.35047         0.038818     -0.247415     -0.190423
Pb      14.97060     14.99948     12.33119        -0.089414     -0.043527     -0.029338
Pb       3.89729      7.55485      4.19994        -0.049230     -0.648122     -0.240739
Pb       3.76074      7.59030      0.02630         0.623791     -0.243715     -0.787654
Pb       0.18462      7.54616      4.18277        -0.702089     -0.535067     -0.464760
Pb       0.07462      7.40890      0.08903        -0.539474      0.328395     -0.972626
Pb       3.71485      7.53244      8.36506         0.478920     -0.286741     -0.642541
Pb       0.05881      7.54720      8.27253        -0.076072     -0.434752      0.142544
Pb       3.64473      7.34202     12.36715         0.435439      0.671628     -0.073860
Pb      14.90042      7.50992     12.29313         0.301185     -0.058236      0.444744
Pb       3.90595     11.04865      4.14876        -0.289466      0.469748      0.011049
Pb       3.76759     11.23970      0.19242         0.190523      0.229322     -1.353438
Pb       0.11283     11.14120      4.18686        -0.025001      0.258865     -0.491819
Pb       0.10019     11.24035      0.16411        -0.164286      0.084692     -1.070077
Pb       3.71268     11.30270      8.25648        -0.019013     -0.235834     -0.451734
Pb       0.07486     11.28034      8.17719         0.024619      0.433962     -0.133497
Pb       3.72199     11.14450     12.32761         0.368514      0.471988     -0.168695
Pb       0.00935     11.23510     12.29890        -0.046960      0.203118      0.038485
Pb       7.40460      3.89755      4.06534         0.181651     -0.835988     -0.110948
Pb       7.44110      3.69517      0.10808         0.055099     -0.306988     -1.153487
Pb       7.53143     14.91227      4.08383        -0.454287      0.285379      0.116039
Pb       7.57156     14.85715      0.04486        -0.140128      0.981122     -0.174711
Pb       7.41511      3.78823      8.30322        -0.119929      0.203971     -0.419181
Pb       7.39064      0.05563      8.27595        -0.240422     -0.254152     -0.562083
Pb       7.35376      3.77510     12.40885         0.118792     -0.212827     -0.135538
Pb       7.41898      0.04788     12.22119        -0.179654     -0.487144      0.213757
Pb       7.66655      7.41925      4.13887        -0.755871      0.646431      0.481123
Pb       7.51431      7.39204     16.37530        -0.565053      0.671006     -0.405190
Pb       7.60818      7.39772      8.23414        -0.729120      0.258238     -0.330544
Pb       7.45674      7.59563     12.23075        -0.803088     -0.126354      0.717121
Pb       7.57471     11.07262      4.16764        -0.398914      0.069763      0.279194
Pb       7.46669     11.26029      0.00406        -0.377974     -0.279366     -0.684942
Pb       7.60375     11.28473      8.20170        -0.179595     -0.173640     -0.203494
Pb       7.49105     11.34819     12.22534        -0.381813     -0.253350      0.323687
Pb      11.26821      3.77387      4.19192        -0.288483      0.435995     -0.200087
Pb      11.24682      3.77173      0.11364         0.059573     -0.528951     -0.967130
Pb      11.22553     14.89271      4.07781         0.002631      0.473027     -0.120315
Pb      11.36981     14.97067      0.02535        -0.855647      0.539597     -0.287206
Pb      11.18742      3.67628      8.39711        -0.026736      0.217166     -0.304169
Pb      11.18656      0.00292      8.23864         0.399375      0.209118     -0.207796
Pb      11.11580      3.75065     12.34755         0.393794     -0.130238     -0.426422
Pb      11.17031     14.86953     12.42346         0.134339      0.400624     -0.431457
Pb      11.36172      7.50522      4.14335        -0.371436     -0.079472     -0.314552
Pb      11.22703      7.39994      0.02410         0.337682      0.716332     -0.432932
Pb      11.30064      7.45654      8.25801        -0.378805      0.316152      0.433184
Pb      11.01918      7.48455     12.33682         1.607605      0.240790     -0.095540
Pb      11.22610     11.16362      4.11396         0.290229     -0.057425     -0.315261
Pb      11.19514     11.29895      0.03618         0.225515     -0.555746     -0.604104
Pb      11.33936     11.40939      8.23431        -0.457754     -0.480726      0.063432
Pb      11.12881     11.22809     12.34192         0.600881     -0.149915     -0.159040
Ti       1.90555      1.87079      2.03090        -0.619741      0.228012     -0.049219
Ti       1.89547      1.81911     14.39974        -0.786445     -0.221384     -0.308792
Ti       1.85718     13.15352      2.07700         0.744521     -0.646130     -0.107025
Ti       1.93270     13.10174     14.29799        -0.895233     -0.275522      0.721617
Ti      13.10463      1.87733      2.14302         0.186426     -0.182664     -0.698038
Ti      13.09777      1.80521     14.39858         0.313934      0.632296     -0.049694
Ti      13.19651     13.10129      1.99169        -0.468040     -0.424205      0.749339
Ti      13.13683     13.01226     14.35882         0.700524      1.125236     -0.537245
Ti       1.77558      1.92671      6.18325        -0.290679     -1.588114     -0.328173
Ti       1.95849     13.13815      6.16501        -1.086168      0.398636      0.529632
Ti      13.01990      1.94648      6.16705         0.566478     -0.200584      0.579743
Ti      13.18793     13.09526      6.10086        -0.026767      0.883849      1.284427
Ti       1.78544      1.93671     10.31921        -1.221970      0.557507      0.821556
Ti       1.83246     13.19693     10.22788         0.331609     -0.084507     -0.472618
Ti      12.99482      1.77028     10.41661         1.279950      0.895432     -0.538750
Ti      13.09033     13.10307     10.23667         0.477248      0.585325      0.908707
Ti       1.88720      5.60036      1.98340         0.044923     -0.035778      1.444349
Ti       1.82443      5.62119     14.40216         0.264015      0.226013     -0.616700
Ti      13.10924      5.64363      2.07285         0.357366     -0.012035      0.613008
Ti      13.10109      5.64035     14.37859         0.842193     -0.314625     -0.264077
Ti       1.89172      5.61326      6.16648        -0.500254      0.119289     -0.182517
Ti      13.14951      5.76358      6.29787        -0.025800     -1.198569     -0.615184
Ti       1.76602      5.63697     10.26977         0.431248     -0.615849      0.749666
Ti      13.07091      5.59334     10.28891        -0.836723      0.219528      0.776057
Ti       1.83075      9.31669      1.98190         0.844835      0.028610      1.446265
Ti       1.90587      9.34653     14.36702        -0.133039      0.377311      0.059468
Ti      13.07594      9.32215      2.02680        -0.228042      0.517297      0.596079
Ti      13.14967      9.34696     14.37388        -0.596843     -0.249504      0.019329
Ti       1.92305      9.32352      6.16920         0.496474      0.672480      0.768627
Ti      13.12173      9.41462      6.19752         0.528721      0.315916     -0.081647
Ti       1.86365      9.41918     10.19284         1.669034     -0.532546      0.872865
Ti      13.19858      9.38549     10.24851        -1.302066     -0.370701      1.479435
Ti       5.63350      1.81855      2.02855        -0.287552      0.703956     -0.084983
Ti       5.63008      1.82814     14.40241         0.299847      0.732977      0.028697
Ti       5.66526     13.03628      2.09745        -0.617607      0.087638     -0.279505
Ti       5.61442     13.14603     14.37014        -0.702609     -1.691689     -0.480154
Ti       5.62643      1.90419      6.05146        -0.879194     -1.306542      0.268488
Ti       5.64604     13.07965      6.25965        -0.152050      0.327919     -0.061795
Ti       5.51162      1.86666     10.35089         0.502156     -0.335643     -0.052798
Ti       5.52439     13.05555     10.15221         0.405316      0.740807      0.836067
Ti       5.57600      5.61933      1.92485        -0.752473      0.034554      0.730752
Ti       5.64247      5.64251     14.34364        -0.638097      0.403353     -0.458587
Ti       5.59059      5.57753      6.07815        -0.028010      0.874825      1.402834
Ti       5.49016      5.60477     10.26929         0.592721     -0.174410      0.916226
Ti       5.64161      9.29279      2.08008         0.175990     -0.387039     -0.137376
Ti       5.64497      9.38878     14.28393         0.587736      0.048561      0.356890
Ti       5.70470      9.29684      6.36319         0.212843     -0.171880     -0.761197
Ti       5.70317      9.35286     10.24179        -0.850984     -0.112463     -0.228708
Ti       9.32818      1.88381      2.03373         0.654408     -0.772492      0.267759
Ti       9.39478      1.92575     14.33290        -0.289647     -0.932881      0.202728
Ti       9.39623     13.14585      2.08225        -0.196650     -0.227200     -0.433904
Ti       9.32968     13.11983     14.33144        -0.014438      0.117172     -0.080020
Ti       9.29580      1.91243      6.19262        -0.087669      0.209988     -0.694381
Ti       9.43785     13.21442      6.16443        -1.399921     -0.815602      0.061358
Ti       9.21687      1.82737     10.22398         1.203236      1.112875      1.367793
Ti       9.31799     13.17670     10.20476         0.329316     -1.263222     -0.090099
Ti       9.31535      5.62849      1.98432         0.264821     -0.069747      0.574492
Ti       9.36801      5.63670     14.34165        -0.048923     -1.239868     -0.231226
Ti       9.40052      5.63976      6.22216        -0.895017     -0.208821      0.111534
Ti       9.24262      5.67341     10.34601         1.047914     -1.611212     -0.781633
Ti       9.32283      9.38723      1.96691         0.311957     -0.479151      1.127867
Ti       9.36736      9.37376     14.37899         0.057938      0.698881      0.035332
Ti       9.43739      9.39409      6.30062        -1.206406     -0.240839     -0.325025
Ti       9.37807      9.39688     10.28128         0.881620      0.594235     -0.771867
O       1.98339      1.84062      0.14726        -0.180774     -0.062975      0.826705
O       1.82860      1.73046     12.54726         0.277158      0.514387      0.351485
O       1.66197     13.02781      0.16235         0.813010      0.511425      1.349671
O       1.96921     13.04414     12.47543        -0.423850      0.306021     -0.625320
O      13.10497      1.87455      0.24500         0.143379      0.078134      0.799747
O      12.91349      1.75343     12.55918         0.690013     -0.032633      0.125571
O      13.18344     13.04196      0.17139        -0.055608      0.204262      0.053958
O      13.05252     13.17453     12.49754         0.374132     -0.295242      0.395805
O       1.72863      1.87385      4.33290         0.339814      0.159430     -0.199601
O       1.82760     13.19553      4.30523         0.118763     -0.163717     -0.111876
O      13.11932      1.96234      4.30841        -0.365620     -0.560600     -0.504878
O      13.16779     13.02627      4.31888        -0.218819      0.393070     -1.139708
O       1.70187      1.98914      8.51676         0.290860     -0.011469     -1.049603
O       1.90605     13.15072      8.37613         0.039723     -0.300039      0.894161
O      13.14033      1.90829      8.54189        -0.086652      0.117905     -0.835247
O      13.11206     13.13025      8.42478        -0.289254     -0.229970     -0.790651
O       1.79364      5.52506      0.21304         0.147696      0.465266     -0.771612
O       1.86550      5.77875     12.54111        -0.621457     -0.701521      0.435643
O      13.21500      5.63473      0.26268        -0.871382     -0.158928     -0.172648
O      13.15302      5.73146     12.56149         0.156292     -0.366289     -0.488568
O       1.89343      5.52367      4.31769        -0.043045      0.287093     -0.262429
O      13.04418      5.63538      4.48263        -0.055275      0.421807     -0.941789
O       1.84375      5.54359      8.45945        -0.159605      0.273678     -0.435089
O      13.15256      5.58959      8.46262        -0.449975     -0.011165     -0.824519
O       1.81259      9.33433      0.20038         0.264194      0.179872     -0.452479
O       2.03265      9.45786     12.54010        -0.709843     -0.590273     -0.192030
O      12.94039      9.33095      0.25800         0.585837      0.001028     -0.564190
O      13.09805      9.42013     12.56925         0.305158     -0.271459     -0.818492
O       1.87848      9.26446      4.32432         0.167266      0.415684     -0.157372
O      13.06834      9.35679      4.38144        -0.077000      0.110482     -0.396742
O       1.79900      9.30228      8.37194        -0.048804      0.083868     -0.121969
O      13.13301      9.43452      8.48886         0.228580      0.189211     -0.912342
O       5.53089      1.90410      0.14852        -0.045596     -0.170231      0.811984
O       5.65266      1.72948     12.53086        -0.578237      0.278379      0.606621
O       5.64093     12.98554      0.24334        -0.218747      0.257054      0.476480
O       5.64249     13.02487     12.55357        -0.024301      0.655295     -0.034260
O       5.64566      1.84925      4.23217        -0.088645     -0.324374     -0.049790
O       5.59284     13.25856      4.42001        -0.188865     -0.622569     -0.839214
O       5.75170      1.92720      8.52660        -0.664634      0.025979     -0.360989
O       5.42246     13.10298      8.32367         0.787582      0.051531      0.485961
O       5.61182      5.70841      0.12480        -0.097566     -0.328239     -0.255723
O       5.65190      5.70938     12.46702         0.103841     -0.409718      0.436695
O       5.60964      5.66646      4.27041         0.014197     -0.215547      0.058439
O       5.54398      5.41540      8.48481         0.065144      0.135067     -0.481718
O       5.59444      9.41641      0.25258         0.074193     -0.313557      0.566501
O       5.67096      9.40361     12.47180        -0.149922     -0.124712     -0.630013
O       5.70986      9.31415      4.33131        -0.406221     -0.002862      0.523039
O       5.79962      9.41728      8.39527        -0.407557     -0.250793      0.392134
O       9.31375      1.72713      0.24444         0.444415      0.495981     -0.872477
O       9.45620      1.92106     12.48947        -0.260791     -0.237258      0.292634
O       9.37016     13.30700      0.20380         0.150932     -1.038568      0.133598
O       9.29290     13.01347     12.48476         0.222474      0.566055     -0.047634
O       9.28898      1.91621      4.33167         0.440428     -0.362803      0.199348
O       9.34831     13.14954      4.21440         0.576815      0.213965      0.871311
O       9.19380      1.75529      8.42728         0.206392      0.498878     -0.532477
O       9.40761     13.16301      8.35915         0.191029     -0.106623      0.305048
O       9.34602      5.58896      0.16384         0.490436      0.130004      0.041541
O       9.36741      5.65297     12.45309        -0.338493     -0.394541      0.247080
O       9.23395      5.55907      4.35272         0.310967      0.167933     -0.390568
O       9.41662      5.65902      8.45495        -0.343456      0.029254      0.401540
O       9.36458      9.33507      0.22284         0.328268     -0.027677     -1.491388
O       9.31025      9.42736     12.54780         0.401648     -0.425750     -0.448532
O       9.21120      9.28275      4.42750         0.758368      0.580957     -0.753593
O       9.36878      9.34282      8.42589        -0.103300      0.243148      0.615519
O       3.77884      1.72130      2.40982        -0.422681     -0.700463     -0.088053
O       3.72542      2.12518     14.61770         0.875914     -0.253748     -0.450552
O       3.72573     13.13968      2.23793        -0.051570      0.935694      0.332872
O       3.72369     12.80790     14.65936         1.181003      0.136691      0.276064
O       0.01193      2.20269      2.14590        -0.137627     -0.387593      0.523464
O       0.06095      1.60024     14.64397        -0.972202     -0.026743     -0.028192
O       0.02188     12.83872      2.26829        -0.184846     -0.188804      0.219599
O       0.05671     13.37441     14.45316        -1.061552     -0.053635      0.077159
O       3.59070      1.92059      6.50091         2.409686     -0.450297     -0.124361
O       3.72028     13.22568      6.50702         1.035828      0.077301     -0.681417
O      14.88030      1.85724      6.33349         0.924942      0.652890      0.578555
O       0.01134     13.08370      6.51970        -0.198738     -0.704217     -0.647249
O       3.69082      1.67404     10.57847        -0.033035     -0.068119     -0.354115
O       3.72990     13.20974     10.53261        -0.278678      0.180712     -0.186850
O      14.91477      2.11627     10.63845         0.709056      0.130785      0.158609
O       0.01664     12.95946     10.40190        -0.465481     -0.191649      0.616848
O       3.72035      5.94693      2.15193         0.068725     -0.156136      0.441825
O       3.82284      5.49706     14.43833        -2.072662     -0.295243      0.589312
O      14.97018      5.37938      2.27071         0.203787     -0.271094      0.396329
O      14.97974      5.95328     14.62891         0.362750     -0.417710     -0.193974
O       3.67120      5.78855      6.48585         1.761493     -0.635332     -0.138354
O      14.99769      5.49941      6.27258        -0.259814      0.474402      0.703361
O       3.65233      5.79895     10.53713         0.884143      0.052308     -0.149067
O      14.93922      5.37348     10.42129         0.564438     -0.575279      0.608874
O       3.72974      8.92954      2.40501         0.082059      1.176311     -0.876947
O       3.86116      9.50578     14.62172        -2.701753      0.343394      0.258075
O      14.97061      9.54616      2.29461        -0.058329      0.100372      0.235583
O      14.95820      8.95655     14.48633         1.166824      0.684469      0.499708
O       3.79983      9.15806      6.57865        -1.007093      0.431875     -0.616461
O       0.02354      9.63831      6.27083        -0.736988     -0.353921      0.371710
O       3.78026      9.15304     10.33934        -0.334200      0.289890      0.185693
O       0.08246      9.59571     10.50013        -2.031822     -0.255522      0.315307
O       7.46777      2.01283      2.13411        -0.495777      0.526635      0.643503
O       7.51838      1.77547     14.60807        -0.217288     -0.844703     -0.086381
O       7.47054     12.82827      2.27934         0.805963     -0.175011      0.165972
O       7.47668     13.27659     14.68078         0.203630      0.267079     -0.182040
O       7.42605      2.02002      6.34719         1.224443      0.068153      0.367066
O       7.51816     13.05893      6.44368        -0.388384     -0.017107     -0.037954
O       7.40295      1.85051     10.67176         1.277871      0.761313     -0.391328
O       7.45897     12.98333     10.35703         0.058882     -0.000410      0.121848
O       7.42207      5.26502      2.01656         1.129954      0.217785      1.055691
O       7.53926      5.69846     14.62334        -0.162796      0.669427     -0.060728
O       7.46889      5.53293      6.45369        -0.365629     -0.428659      0.025424
O       7.42500      5.23928     10.52093         0.774206      0.761854     -0.519843
O       7.48886      9.77445      2.18209         0.053075     -0.470937      0.437028
O       7.52446      9.14472     14.63560        -0.114193     -0.307229      0.216007
O       7.51997      9.54886      6.45726        -0.027115      0.078649      0.039776
O       7.52893      9.53599     10.57961        -0.018459     -0.126143     -0.161140
O      11.24322      1.51588      2.20448         0.205419      0.165722      0.595142
O      11.26626      2.13621     14.74044        -0.300546     -0.286572     -0.089009
O      11.28177     13.47884      2.14709         0.239801     -0.239787      0.713037
O      11.17096     12.74210     14.47000         1.420465      0.481292      0.446929
O      11.22135      1.87350      6.54048        -0.508568     -0.651960     -0.205623
O      11.23198     13.36041      6.34747         0.830463     -0.503520     -0.056371
O      11.21902      1.65143     10.47171        -1.724547     -0.405140     -0.303500
O      11.24493     13.25601     10.44493        -0.471979      0.233976      0.007058
O      11.16500      5.83015      2.44339         0.051159     -0.154702     -0.660971
O      11.29893      5.31327     14.54562        -1.464675     -0.009614      0.686544
O      11.20369      5.87081      6.43537         1.021529      0.184699     -0.084486
O      11.21026      5.87422     10.55239        -0.397476     -0.109474     -0.297379
O      11.18299      9.05968      2.25781         0.085338      0.036281      0.722956
O      11.25738      9.67396     14.55556        -0.695722     -0.107371      0.348993
O      11.22987      9.18493      6.46822         1.149351      0.123650     -0.162357
O      11.24187      9.04056     10.53742         0.074201      0.697285     -0.296008
O       2.19427      3.69238      2.19303        -0.226069      1.481695      0.299187
O       1.70707      3.80378     14.62001        -0.166523     -1.093863     -0.215763
O       1.76727      0.05934      2.17975        -0.509877     -2.156333      0.320488
O       2.28105     14.92194     14.52974        -0.277468      1.179003      0.475987
O      12.85773      3.78472      2.33199        -0.204613     -0.895643      0.023019
O      13.37882      3.69846     14.56332         0.292564      0.281775      0.089067
O      13.55623     14.97189      2.29115        -0.842882      0.498476      0.061275
O      12.95062     14.95682     14.65352        -0.298567     -0.354867     -0.143396
O       1.88190      3.75585      6.45437        -0.249812      0.196382     -0.048926
O       1.85806      0.00488      6.52739        -0.423732      0.376667     -0.442967
O      12.99837      3.83481      6.36075        -0.092459     -0.808233      0.404636
O      13.25328     14.96787      6.37665        -0.694304      0.868382     -0.344421
O       2.15292      3.73649     10.63643        -0.591533      0.948022     -0.077098
O       1.64509      0.09511     10.41594         0.191604     -1.926866      0.360701
O      12.86690      3.73348     10.64502         0.044991      0.358729     -0.158500
O      13.37949     14.97230     10.38542        -0.038160     -0.097617      0.556124
O       1.56658      7.45424      2.25099        -0.137127     -0.232709      0.137101
O       2.06458      7.50729     14.78260         0.256954     -0.432224     -0.280657
O      13.27587      7.47091      2.41508         0.053487      0.132457      0.034474
O      12.77320      7.46712     14.64250        -0.060074      0.509020      0.169870
O       1.73157      7.49962      6.39001        -0.619006     -0.325392      0.180230
O      13.33439      7.65049      6.65993        -0.292335     -1.787748     -0.526104
O       1.60717      7.48229     10.52239         0.263469      0.579467     -0.468910
O      13.41515      7.44928     10.47502        -0.202152      1.169721     -0.361760
O       2.09336     11.15450      2.19865        -0.236548      0.512297      0.547451
O       1.70407     11.19341     14.55778        -0.635578     -0.325426      0.402651
O      12.84728     11.23615      2.29373        -0.098490      0.048459      0.054881
O      13.43373     11.23294     14.56698         0.183511     -0.248995      0.375348
O       1.98088     11.20401      6.43071         0.283893      0.800312     -0.160366
O      12.85313     11.27366      6.38930         0.270440     -0.116887      0.256877
O       1.97871     11.26822     10.39604         0.587397     -0.351015      0.034022
O      12.97477     11.25857     10.47193        -0.068992     -0.878933      0.278611
O       5.33897      3.74975      2.24372         0.191564     -0.020596      0.061930
O       5.76997      3.76182     14.47141         0.204678     -0.729344      0.187829
O       5.81450     14.92561      2.23199        -0.279476      0.290513      0.101058
O       5.39762     14.99043     14.65315        -0.152582      0.035564      0.115902
O       5.55682      3.70994      6.16212        -0.601425      1.623094      0.733586
O       5.72598      0.06482      6.41442        -0.652286     -0.689740      0.326051
O       5.44573      3.68717     10.64694        -0.349265      0.503645      0.151469
O       5.72194     14.92636     10.48856         0.035410      0.150755     -0.113310
O       5.96284      7.44090      2.34145        -0.024236      0.422344     -0.394660
O       5.38956      7.52458     14.55779         0.797586     -0.545184      0.293749
O       5.72433      7.45103      6.59281         0.078161     -0.673022     -0.503260
O       5.79729      7.45948     10.50869         0.282870     -0.079241     -0.485093
O       5.32877     11.15621      2.34968         0.069633      0.398101      0.115999
O       5.76505     11.23699     14.55851         0.844541      0.278584      0.406238
O       5.46957     11.18235      6.33220        -0.130660      1.201025      0.028369
O       5.56932     11.20646     10.38142        -0.626545      0.400237      0.351411
O       9.49963      3.70744      2.15498         0.524548      0.856249      0.460350
O       9.18814      3.75427     14.52477         0.246851     -0.184561      0.359441
O       9.01834     14.96558      2.19495         0.212653      0.179432      1.012047
O       9.70513     14.97466     14.42871        -0.440176      0.333469      0.402600
O       9.54118      3.78929      6.44438        -0.271554     -0.586567      0.230212
O       9.30366      0.03619      6.52623        -0.371267      0.147723     -0.752534
O       9.61883      3.67932     10.30087        -0.493930      0.553266      0.613846
O       9.20535     14.97109     10.45258         0.015804      0.382248      0.479079
O       8.94875      7.48910      2.19226         0.446420     -0.351350      0.142889
O       9.63299      7.43314     14.51123         0.072719      1.127074      0.743112
O       9.15599      7.54537      6.50394         0.231952     -1.024931     -0.341614
O       9.01986      7.51192     10.47292         0.496776     -0.466274      0.104586
O       9.69825     11.24072      2.22573        -0.174781      0.361723      0.236441
O       9.09532     11.22161     14.57454         0.086489      0.299577      0.449331
O       9.46576     11.28412      6.46317         0.470652      0.535793     -0.301823
O       9.50161     11.26984     10.51339         0.142224     -0.554952     -0.444262
