  # total energy = -7882.08545902 
CRSYTAL
PRIMVEC
    15.3600000000000000    0.0000000000000000    0.0000000000000000
     0.0000000000000000   15.3600000000000000    0.0000000000000000
     0.0000000000000000    0.0000000000000000    17.440000000000000
PRESSURE
0.251683 0.464251 -2.69436 -0.42362 -0.077754 0.048854
PRIMCOORD
320 1
Pb       3.80875      3.83420      4.36238         0.217591      0.068165     -0.284156
Pb       3.90706      3.81833     17.36582        -0.724044      0.012513      0.460645
Pb       3.82686     15.35014      4.32129        -0.278002     -0.543434      0.443922
Pb       3.86887      0.01322     17.40339        -0.261182     -0.307616      0.222860
Pb      15.32113      3.82402      4.36292         0.187076      0.144232     -0.064503
Pb       0.03048      3.82415      0.00692         0.072763      0.268683     -0.104315
Pb      15.35824     15.32834      4.32738         0.307130     -0.243939     -0.298928
Pb      15.22981     15.33105     17.41392         0.608053      0.041120      0.160583
Pb       3.80617      3.87601      8.62128        -0.333679     -0.106670      0.196496
Pb       3.82344     15.32993      8.75536        -0.237190      0.106048     -0.131182
Pb      15.20354      3.84539      8.63839         0.792191      0.210540      0.308086
Pb      15.30920      0.07638      8.67086         0.341918     -0.849119      0.638756
Pb       3.85955      3.79257     12.99608        -0.454727      0.197214      0.202164
Pb       3.80666     15.28147     13.01887        -0.380042      0.472220     -0.206970
Pb      15.32235      3.76116     13.06923         0.213001      0.185757      0.196201
Pb      15.34679      0.01812     12.97199        -0.005984     -0.417209      0.624449
Pb       3.86324      7.69088      4.29141         0.141406     -0.306351      0.480111
Pb       3.77783      7.66695      0.00957         0.107415     -0.082482     -0.266929
Pb       0.07574      7.66547      4.30861        -0.402550      0.175997      0.372102
Pb      15.34648      7.74295     17.36401        -0.135787     -0.714966      0.343532
Pb       3.89843      7.62533      8.68566        -0.794532      0.518937      0.443051
Pb      15.33405      7.63926      8.67862         0.219514      0.295469      0.292079
Pb       3.83062      7.65890     13.06111        -0.080278     -0.046199      0.142621
Pb       0.01891      7.67951     13.05811        -0.193247      0.009850      0.306813
Pb       3.74937     11.47998      4.31197         0.183686      0.276731      0.366232
Pb       3.91131     11.40936     17.36319        -0.414734      0.196359      0.158117
Pb       0.06160     11.57361      4.24276        -0.165596     -0.365083      0.565925
Pb      15.32134     11.47602     17.37854        -0.067762      0.150190     -0.244884
Pb       3.80124     11.55842      8.70441         0.068454     -0.399292     -0.191351
Pb      15.35398     11.43588      8.66792        -0.101359      0.274344      0.370671
Pb       3.89625     11.51559     13.02552        -0.156292     -0.314233     -0.239141
Pb       0.03464     11.48898     13.09100        -0.420893     -0.075279     -0.255008
Pb       7.66986      3.76421      4.36313        -0.030695      0.504669     -0.198446
Pb       7.71748      3.87467     17.31396        -0.967943     -0.220631      0.888048
Pb       7.66389      0.03323      4.30890        -0.083851     -0.473477      0.427369
Pb       7.54796     15.34602     17.36415         0.175830     -0.073553      0.140292
Pb       7.66308      3.81886      8.68293        -0.122718     -0.117554      0.157690
Pb       7.68449     15.29958      8.65891        -0.372136      0.385942     -0.222839
Pb       7.74174      3.88433     13.14192        -0.692592     -0.125483     -0.241729
Pb       7.69661      0.04847     13.03526        -0.070623     -0.400379     -0.055452
Pb       7.60463      7.61922      4.29264         0.117893     -0.414718      0.298523
Pb       7.66925      7.64637     17.41520        -0.606555     -0.027617      0.255953
Pb       7.62799      7.74892      8.64458         0.119360     -0.293939      0.493409
Pb       7.64964      7.63636     13.01994        -0.532690      0.324398      0.448693
Pb       7.65181     11.46311      4.32543         0.161270     -0.062898      0.472549
Pb       7.62919     11.57446     17.34461        -0.132710     -0.561995      0.474151
Pb       7.70707     11.48570      8.69053        -0.428146     -0.030269     -0.082221
Pb       7.77080     11.58687     13.06976        -0.514848     -0.796349     -0.316673
Pb      11.55399      3.77479      4.34121        -0.566782      0.585145      0.231658
Pb      11.50346      3.82742     17.42999         0.505280     -0.113926      0.169965
Pb      11.52321      0.02156      4.26439         0.242167     -0.694888      0.726362
Pb      11.48124     15.33499     17.29807        -0.111064     -0.193127      0.462341
Pb      11.54991      3.93274      8.67254        -0.550289     -0.787184      0.003823
Pb      11.50338     15.30518      8.66071        -0.113682      0.077444      0.001866
Pb      11.51627      3.77165     13.12566         0.076631      0.091958      0.154695
Pb      11.44680     15.33722     13.02331         0.424458     -0.013279      0.237004
Pb      11.54861      7.68302      4.26902        -0.320863     -0.256277      0.499896
Pb      11.45797      7.62613     17.42741         0.328984     -0.035794     -0.190337
Pb      11.53507      7.66124      8.66930        -0.318895      0.139233     -0.167371
Pb      11.45709      7.68965     13.00940         0.634792     -0.152400      0.432393
Pb      11.53799     11.44859      4.35924        -0.146736      0.017507      0.038460
Pb      11.44915     11.49309     17.38801         0.267741      0.016692     -0.291341
Pb      11.49281     11.50225      8.75609         0.205890      0.147465     -0.098323
Pb      11.49664     11.50173     12.98618        -0.099298     -0.633605      0.550423
Ti       1.97543      1.94815      2.32916        -0.101088     -0.885620     -0.400150
Ti       1.98755      1.90324     15.39799        -0.555322     -0.213833     -1.775787
Ti       1.90379     13.45796      2.18824         0.300956      0.353293      0.139987
Ti       1.86797     13.50082     15.39819         0.164008     -0.183720      1.690620
Ti      13.53156      1.89922      2.39230        -0.340769      0.332320     -0.684726
Ti      13.49048      1.95245     15.40299         0.144458     -0.639732      0.651435
Ti      13.37249     13.36177      2.33553         0.517932      0.154631     -0.486049
Ti      13.40416     13.46890     15.32141         0.288102     -0.743680      0.134404
Ti       1.91927      1.91011      6.67274         0.071584      0.128327      0.976549
Ti       1.85658     13.39851      6.71641         0.241958      0.121978      0.109488
Ti      13.47789      1.91287      6.67547        -1.289543     -0.412430      0.519761
Ti      13.37673     13.42502      6.67059        -0.077264     -0.253418      0.288428
Ti       1.84581      1.90990     10.99733         1.302386      0.034347     -0.954408
Ti       1.87286     13.42821     11.02021        -0.393606     -0.408327     -1.103574
Ti      13.39483      1.84696     11.06740        -0.168530      0.057031      0.762069
Ti      13.39270     13.34467     11.11025         0.207150      0.386769     -1.496917
Ti       1.83757      5.75334      2.36892         0.547444     -0.653232     -1.411845
Ti       1.83989      5.71317     15.33092         0.466177     -0.067207      0.437098
Ti      13.39567      5.77738      2.32850         0.415790     -0.400782     -0.651122
Ti      13.39382      5.73858     15.38900         0.468181     -0.049809     -0.877110
Ti       1.81089      5.79324      6.58083         0.305352     -0.484164      0.622103
Ti      13.39254      5.82330      6.62634        -0.483337     -0.114396     -0.281577
Ti       1.87599      5.71535     11.03280         0.250080      0.606056     -1.198256
Ti      13.47014      5.64535     11.13286        -0.388848      0.249052      0.890057
Ti       1.94384      9.57855      2.31465        -0.221046      0.087231     -0.710857
Ti       1.85624      9.57653     15.38885         0.348238      0.000774     -0.294506
Ti      13.49429      9.55101      2.30596        -1.100590      0.003728     -0.027663
Ti      13.28303      9.54936     15.43131         0.931394      0.317189     -1.873559
Ti       1.86758      9.55336      6.64917         1.065667      0.331464     -0.545895
Ti      13.36030      9.66901      6.62967         0.325878     -0.496956     -0.752648
Ti       1.86519      9.59038     11.01666         0.105341     -0.159654     -1.314251
Ti      13.40454      9.47776     11.04421        -0.358083      0.836040      0.462015
Ti       5.72813      1.83999      2.33987         0.334382     -0.296520     -0.459281
Ti       5.72242      1.85729     15.26511         0.076872      0.427909      2.618516
Ti       5.74162     13.33975      2.39030        -0.843589      0.251037     -0.553405
Ti       5.68185     13.38261     15.27730         0.047300     -0.112147     -0.725107
Ti       5.69724      1.91169      6.67033         0.308040     -0.025611     -0.636081
Ti       5.62953     13.45085      6.59645        -0.294011      0.162015      0.166510
Ti       5.70899      1.89829     11.04977         0.012066      0.030281      0.170143
Ti       5.70608     13.41071     10.99068        -0.075576     -0.088530     -0.063751
Ti       5.71575      5.64317      2.24857         0.414827      0.690331     -0.491633
Ti       5.63351      5.73274     15.44113         0.359083      0.390239     -1.577452
Ti       5.71173      5.83606      6.74196         0.345512     -0.700369     -0.857397
Ti       5.72577      5.70524     11.05767        -0.454933      0.123675     -0.687510
Ti       5.77344      9.52778      2.34967        -0.757861      0.078386     -1.313692
Ti       5.72930      9.55149     15.36056        -0.049864     -0.822161     -1.342568
Ti       5.73790      9.61299      6.59206        -0.687025      0.000220     -0.440153
Ti       5.70850      9.50407     11.02166         0.226584      0.581783      0.360432
Ti       9.63477      1.88102      2.41474        -0.406460      0.442448     -0.511377
Ti       9.58183      1.95042     15.44673         0.219061     -1.029476     -1.288026
Ti       9.58182     13.35518      2.33381        -0.090152      0.115101      0.628433
Ti       9.53100     13.40097     15.36184        -0.002027     -0.038693     -0.268724
Ti       9.53345      1.91210      6.63905         0.718481      0.139496      0.778443
Ti       9.48259     13.36041      6.68545         0.689070      0.319547     -0.833673
Ti       9.56517      1.92665     11.07861         0.295110     -0.161809     -1.382296
Ti       9.52782     13.42328     11.04536         0.787964     -0.201868      0.665471
Ti       9.50375      5.75770      2.22141         0.264964     -0.066130      0.913047
Ti       9.52812      5.75691     15.38780         0.080079     -0.308702      1.008062
Ti       9.49888      5.70845      6.65622         1.348592      0.372330     -1.358527
Ti       9.60460      5.72004     11.06283        -0.008402     -0.670712     -0.051715
Ti       9.56084      9.56287      2.30341         0.135899     -0.288391      0.027052
Ti       9.51924      9.53054     15.35802        -0.061184      0.528199      0.261443
Ti       9.58081      9.56008      6.66024         0.512892      0.231691      0.669856
Ti       9.56002      9.50820     10.92689        -0.220065      0.657411      0.506150
O       2.06964      1.81982      0.55976        -0.382713      0.464213      0.716441
O       2.10333      1.79378     13.53916        -0.832165      0.395000      2.081253
O       1.80887     13.47089      0.39769         0.203445     -0.144218      1.306252
O       1.81405     13.55961     13.67892         0.170810     -0.392563     -0.630170
O      13.55593      2.03314      0.61129        -0.362666     -0.616514      0.909409
O      13.50473      1.86522     13.65862        -0.236370      0.067851      0.159285
O      13.35537     13.35485      0.54207         0.004734      0.139395      1.133311
O      13.55692     13.51656     13.55077        -0.503205     -0.259400      0.866558
O       1.87910      1.97994      4.90799         0.135766     -0.218818      0.700970
O       1.90746     13.31549      4.92863        -0.106811      0.274623      1.198023
O      13.53033      1.80891      4.92909        -0.103678      0.195717     -0.132500
O      13.36587     13.41961      4.86615         0.328829      0.032862      1.386976
O       2.04106      1.92265      9.16226        -0.821252      0.022961      1.859416
O       1.92448     13.45556      9.21112        -0.009950     -0.372069      1.088086
O      13.51026      1.98505      9.33883        -0.393185     -0.161466     -0.560312
O      13.25613     13.46039      9.28666         0.283217     -0.382290      1.462758
O       1.83152      5.60908      0.55523        -0.002955      0.478032      1.543593
O       1.91051      5.81711     13.54020        -0.202427     -0.302638      1.282200
O      13.45958      5.74086      0.51362        -0.222557     -0.049228      1.236943
O      13.53614      5.66558     13.56678        -0.367470     -0.062709      1.498265
O       1.76585      5.71220      4.77092         0.437234      0.030799      1.788201
O      13.55574      5.76765      4.86708        -0.583684      0.073822      0.736448
O       1.81344      5.88567      9.18980         0.039415     -0.465895      1.780138
O      13.39258      5.69145      9.36017         0.049924     -0.015368      0.527208
O       1.79109      9.58088      0.46907         0.375404     -0.318771      1.870268
O       1.90140      9.56427     13.56301        -0.347138      0.067130      1.775329
O      13.26129      9.46980      0.49570         0.583914      0.234494      1.258945
O      13.31527      9.53488     13.60094         0.014775      0.007166      1.502687
O       2.09092      9.52981      4.78135        -1.112802      0.405129      2.218244
O      13.45090      9.62458      4.81554        -0.354323     -0.018604      1.511421
O       1.83891      9.58628      9.09958         0.014356     -0.071162      2.617095
O      13.25910      9.58100      9.27587         0.443182     -0.200375      0.773464
O       5.65907      1.60195      0.53325         0.443540      0.795324      1.444887
O       5.67463      1.88859     13.55295         0.068226     -0.089856     -0.219382
O       5.65133     13.31805      0.58831         0.569195      0.085712      0.898518
O       5.69399     13.40050     13.44745         0.127612     -0.017810      1.706482
O       5.63403      1.83328      4.85486         0.488962      0.293173      1.148271
O       5.41618     13.53399      4.81786         1.182916     -0.453375      1.091184
O       5.75673      1.98242      9.31173        -0.219463     -0.026522     -0.217119
O       5.68593     13.41058      9.19164         0.211401      0.037826      1.232256
O       5.86641      5.77356      0.44178        -0.781589     -0.290209      1.492561
O       5.72023      5.73008     13.57484        -0.332384     -0.080533      1.954941
O       5.83701      5.89878      4.94959        -0.311282     -0.312953      1.247348
O       5.71477      5.78442      9.19164        -0.005166     -0.140079      1.640749
O       5.62191      9.57368      0.48025         0.417433     -0.039859      1.825897
O       5.79544      9.52988     13.49807        -0.408665      0.189682      2.025130
O       5.87627      9.34532      4.78008        -0.703003      0.761401      1.745985
O       5.69616      9.46467      9.23047         0.190908      0.435873      1.432529
O       9.62223      1.76689      0.65842        -0.032081      0.029901      0.144199
O       9.63276      2.05066     13.64783        -0.414403     -0.631339      1.497789
O       9.52036     13.40210      0.56453         0.142851     -0.034480      0.442127
O       9.39183     13.31136     13.57642         0.530217      0.286846      0.878633
O       9.57883      2.18192      4.86101        -0.103457     -0.947507      0.635774
O       9.59358     13.21770      4.91328        -0.122687      0.163027      1.093504
O       9.65250      1.91778      9.24366        -0.511336     -0.021492      1.906040
O       9.52462     13.49330      9.29516        -0.171947     -0.090147     -0.101285
O       9.48151      5.94532      0.41366         0.194395     -0.983770      1.440420
O       9.34163      5.61482     13.64749         0.779725      0.361677      0.209990
O       9.67114      5.67182      4.83546        -0.590955     -0.168428      1.679295
O       9.59538      5.67999      9.31029         0.040659     -0.059465      0.488524
O       9.44772      9.52876      0.53106         0.552617     -0.071891      0.826521
O       9.50272      9.64444     13.60650         0.158063     -0.408531      0.532849
O       9.69718      9.79394      4.91368        -0.551697     -0.568276      0.410557
O       9.54684      9.62613      9.13868        -0.020141     -0.463607      1.254977
O       3.88577      1.80076      2.85720        -0.430818      0.704521     -0.788117
O       3.86144      1.93083     15.88299         0.786111     -0.312169     -0.737034
O       3.77494     13.45520      2.75676         0.411427      0.083598     -0.735238
O       3.84185     13.31138     15.78682        -0.281882      0.231528     -0.590506
O       0.05334      1.87922      2.78285        -0.402995      0.057658     -0.206960
O       0.03956      1.77250     15.76092        -0.276659      0.599350      0.045888
O      15.34291     13.36772      2.80339         0.427387      0.505237     -0.791574
O      15.29967     13.44380     15.83639         0.343824     -0.032376     -0.284274
O       3.81876      1.98190      7.14864        -0.395582      0.005451     -0.610704
O       3.79824     13.46711      7.22410        -0.254357     -0.066590     -0.616685
O      15.30311      1.89752      7.19549         0.890868      0.272687     -0.661430
O      15.29111     13.34536      7.18304         0.413838      0.271867     -0.761784
O       3.72827      1.94816     11.54119         1.039941     -0.579824     -0.951428
O       3.74439     13.39242     11.45516         1.057576      0.056101     -0.254313
O      15.33296      1.85014     11.52053         0.188719      0.337562     -0.675798
O      15.29854     13.27657     11.40401         0.339080      0.567402      0.011395
O       3.88418      5.70273      2.77630        -0.502754      0.030556     -0.359372
O       3.76457      5.67195     15.92500        -0.097707      0.126078     -0.648504
O      15.35580      5.73873      2.76769        -0.225671     -0.163086     -0.346113
O      15.27469      5.60867     15.79557         0.844204      0.461169     -0.246296
O       3.77507      5.84939      7.09217        -0.394910     -0.234661     -0.810391
O      15.20879      5.81960      7.16134         0.910513     -0.252659     -0.557683
O       3.74937      5.79766     11.49336         0.779231     -0.328081     -0.572519
O       0.02445      5.63704     11.50967        -0.742287      0.171157     -0.334768
O       3.80195      9.46541      2.79254         0.541659      0.450293     -0.918659
O       3.75335      9.49578     15.84926        -0.138648      0.440434     -0.568589
O       0.00789      9.64187      2.75839         0.780175     -0.476158     -0.615008
O      15.19966      9.43333     15.82384         1.259077      0.573412     -0.396284
O       3.83020      9.53498      7.05638        -0.480942     -0.209801     -0.413563
O      15.24887      9.69146      7.07556         0.803425     -0.402875     -0.480067
O       3.73486      9.50956     11.48470         0.905838      0.545904     -0.666000
O      15.25164      9.58703     11.44857         1.087415      0.204585     -0.231860
O       7.63091      1.90783      2.85601         0.611435     -0.180944     -0.510663
O       7.65663      1.92993     15.83850        -0.432231     -0.287850     -0.490828
O       7.71011     13.30670      2.89453        -0.066289      0.055212     -0.826186
O       7.59024     13.33940     15.86578        -0.131154      0.096532     -0.660118
O       7.59887      1.91242      7.18015         0.588158      0.153420     -0.612881
O       7.51456     13.38820      7.07053         0.923713      0.029855     -0.187890
O       7.66982      1.82610     11.51229         0.010455      0.105008     -0.427949
O       7.68884     13.47469     11.55273        -0.655467     -0.011537     -0.988792
O       7.62862      5.64540      2.78647         0.444503      0.225608     -0.681983
O       7.56108      5.71391     15.85832         1.065247     -0.017085     -0.610268
O       7.69254      5.82893      7.19750        -0.665514     -0.073341     -0.582516
O       7.51429      5.78981     11.57840         1.816142     -0.581561     -0.954499
O       7.61063      9.62639      2.81519         1.231136     -0.106560     -0.749778
O       7.63028      9.40178     15.85575        -0.461852      0.776074     -0.778755
O       7.61724      9.63482      7.16257         0.357462     -0.103562     -0.733276
O       7.70460      9.46426     11.46884        -0.290867      0.127219     -1.001038
O      11.56218      1.92168      2.86270        -0.289322     -0.255344     -0.561059
O      11.51953      1.84542     15.90271        -0.401643      0.126198     -0.390611
O      11.53001     13.35090      2.82326        -0.337371      0.362178     -0.673563
O      11.46925     13.38392     15.68048        -0.192724      0.161086      0.098668
O      11.45428      1.85701      7.10374         0.360166      0.274187     -0.608355
O      11.42341     13.44352      7.16086         0.530476      0.132037     -0.550291
O      11.48136      1.91333     11.67317         0.175580     -0.131849     -1.035670
O      11.46789     13.33516     11.58440        -0.422693      0.543487     -0.518649
O      11.52814      5.87615      2.64532        -0.614925     -0.451499     -0.274380
O      11.50108      5.61481     15.81863        -0.822597      0.228884     -0.317595
O      11.49496      5.68275      7.17984         0.060406      0.305573     -0.585352
O      11.51046      5.61532     11.61307        -0.104691      0.257167     -0.785834
O      11.53526      9.42344      2.77673        -0.133756      0.587335     -0.840791
O      11.42563      9.53260     15.79854        -0.778852      0.094215      0.191645
O      11.47223      9.65146      7.15322        -0.238416      0.050566     -0.521602
O      11.47378      9.45275     11.49884        -0.361294      0.367692     -0.538871
O       1.87575      3.81448      2.77291         0.528531     -0.160430     -0.054438
O       1.95827      3.78905     15.81102        -0.418255      0.146497     -0.337857
O       1.95926      0.00072      2.76391        -0.707764     -0.462406     -0.375744
O       2.00813      0.05598     15.83904        -0.190980     -1.411827     -0.309437
O      13.42926      3.83467      2.89824         0.195904     -0.018829     -0.837558
O      13.40803      3.76304     15.94057         0.036849      0.181925     -0.673235
O      13.44573     15.33697      2.76622         0.004064     -0.200356     -0.321417
O      13.44368     15.30937     15.94796        -0.566208      0.312379     -0.749036
O       1.82761      3.89215      7.10173         0.014778      0.187515     -0.594033
O       1.90952     15.35539      7.16480        -0.304542      0.072707     -0.866908
O      13.41744      3.82064      7.08608        -0.003554      0.104079     -0.371635
O      13.50058     15.34772      7.22751        -0.660400     -0.215000     -0.898892
O       1.93093      3.80762     11.40319        -0.374986      0.048594     -0.249332
O       1.85982     15.28473     11.42036         0.067659      0.686406     -0.230499
O      13.42585      3.68855     11.64725         0.203783      1.206843     -0.766053
O      13.36096     15.31042     11.44219         0.023650      0.150627      0.036946
O       1.93808      7.63450      2.85363        -0.321717      0.374503     -1.224257
O       1.89181      7.56226     15.96342        -0.382947      0.406690     -1.041713
O      13.55072      7.62447      2.87870        -0.191654      0.660272     -0.965039
O      13.28053      7.62274     15.74764         0.212944     -0.585807      0.117236
O       1.72318      7.67651      7.06691         0.289263      0.004327     -0.720027
O      13.26434      7.74899      7.12982         0.630757     -0.711501     -0.612127
O       1.83222      7.72442     11.49143        -0.249887     -0.386398     -0.592958
O      13.47517      7.59547     11.61363        -0.455969     -0.346453     -1.023538
O       2.07381     11.53745      2.71092        -1.041851     -0.620794     -0.703246
O       1.83945     11.43723     15.88110        -0.261836      0.148691     -0.913846
O      13.52323     11.44640      2.76301        -0.752901      0.215680     -0.695124
O      13.40321     11.47977     15.85660        -0.171721      0.334083     -0.407423
O       1.99208     11.47252      7.22212        -0.658017      0.221748     -1.063645
O      13.36289     11.51838      7.20478        -0.254121      0.498551     -0.719656
O       1.91559     11.53967     11.58024        -0.189797     -0.962327     -0.590717
O      13.37416     11.46712     11.61466        -0.084795     -0.451036     -0.822601
O       5.72811      3.76421      2.69367        -0.137414     -0.055410     -0.217879
O       5.71287      3.82095     15.93699         0.354989     -0.866273     -1.118084
O       5.92424     15.22267      2.78270        -0.674713      0.885597     -0.461028
O       5.72962     15.25040     15.73141         0.051002      0.935825     -0.444052
O       5.74101      3.87057      7.01405        -0.078806      0.377355      0.106953
O       5.68909      0.06084      7.11622         0.023493     -0.739731     -0.206315
O       5.78015      3.78920     11.51038        -0.445785      0.571958     -0.498793
O       5.66184     15.34571     11.37487         0.196217     -0.323629      0.034357
O       5.78365      7.62979      2.73898         0.093939     -0.290523     -0.636724
O       5.52487      7.64183     15.76701         0.709422     -0.125359     -0.099500
O       5.72476      7.74742      7.27169         0.510133     -0.708885     -1.209083
O       5.72115      7.64890     11.54538        -0.257902     -0.013286     -0.834323
O       5.70175     11.43668      2.80293        -0.087963      0.207894     -0.193569
O       5.68998     11.41744     15.71611         0.296145      0.431029     -0.077970
O       5.62098     11.51530      6.86322         0.210476     -0.247153      0.137641
O       5.72029     11.52465     11.38087         0.048630     -0.696889     -0.206568
O       9.60476      3.82517      2.69677         0.206995      0.273143     -0.511556
O       9.59190      3.76742     15.96334        -0.063945      0.690608     -0.607325
O       9.60996     15.28852      2.90792        -0.142955      0.235479     -0.710293
O       9.44973     15.26189     15.71450         0.493833      0.796659      0.141401
O       9.50575      3.84952      7.16878         0.141737     -0.440883     -0.432616
O       9.48691     15.34292      7.00309        -0.150330     -0.062181     -0.114867
O       9.56081      3.75997     11.62001        -0.282271      0.893946     -0.862820
O       9.66749     15.33983     11.54043        -0.519601     -0.088544     -0.339613
O       9.49123      7.63444      2.75579         0.131101      0.105347     -0.484512
O       9.51804      7.57964     15.79905         0.490666      0.555415     -0.660486
O       9.67762      7.65694      6.96672        -0.457864      0.316866      0.139202
O       9.66090      7.54640     11.41725        -0.501619      0.845162     -0.124936
O       9.70787     11.42243      2.71244        -0.406999      0.452869     -0.382869
O       9.51019     11.45423     15.88687         0.011699      0.059714     -0.529300
O       9.58580     11.51567      7.27671        -0.546454      0.150604     -0.736523
O       9.55680     11.41469     11.43686        -0.036061      0.414323     -0.564533
