  # total energy = -7878.74794827 
CRSYTAL
PRIMVEC
    15.3600000000000000    0.0000000000000000    0.0000000000000000
     0.0000000000000000   15.3600000000000000    0.0000000000000000
     0.0000000000000000    0.0000000000000000    17.440000000000000
PRESSURE
-0.639757 -0.677445 -6.5356 0.124426 0.343818 -0.085371
PRIMCOORD
320 1
Pb       3.80534      3.78332      4.42468        -0.029274      0.170967     -0.645465
Pb       3.88339      3.72918     17.39330        -0.047288      0.446793      0.071945
Pb       3.76547     15.29771      4.41381         0.178388     -0.279105     -0.251421
Pb       3.77047     15.32691     17.35902         0.314900      0.064484      0.141719
Pb       0.05360      3.76043      4.40552        -0.357231      0.222213     -0.486316
Pb       0.15638      3.85930      0.06971        -0.363738      0.036834     -0.343871
Pb       0.07301     15.27900      4.31920        -0.043038      0.359984     -0.318494
Pb      15.13664     15.25497      0.02016         0.454468      0.175373     -0.537590
Pb       3.71968      3.89454      8.70934        -0.013126      0.382893     -0.448503
Pb       3.84203      0.01329      8.78868         0.037025     -0.143876     -0.806173
Pb      15.11306      3.98618      8.68583         0.919707     -0.059585     -0.385481
Pb      15.20425      0.13354      8.77883         0.243469     -0.543802     -0.515351
Pb       3.82015      3.74306     12.92967         0.002387      0.452955      0.383755
Pb       3.70213     15.28835     12.90007         0.059916      0.252242      0.130499
Pb       0.03127      3.67311     13.13825         0.370264      0.656618     -0.017529
Pb       0.01522     15.32128     12.99695         0.127568     -0.089678     -0.140571
Pb       3.86509      7.64375      4.31166         0.363871      0.367920     -0.254518
Pb       3.67958      7.55880     17.41382         0.786311      0.242764     -0.108555
Pb       0.17476      7.76552      4.32880        -0.453554      0.046663     -0.151596
Pb      15.21131      7.68844     17.38515         0.418022     -0.023287     -0.330326
Pb       3.91251      7.69384      8.73843        -0.580146     -0.197381      0.473901
Pb      15.34185      7.65129      8.72458         0.224339      0.029700     -0.457607
Pb       3.78518      7.56905     13.01914         0.283156      0.167922     -0.064282
Pb       0.04144      7.62052     13.16669         0.037779      0.028316     -0.384433
Pb       3.68581     11.52378      4.31993         0.411943      0.010400      0.204831
Pb       3.93589     11.40625     17.34064        -0.167829      0.164006     -0.054463
Pb       0.03366     11.64104      4.25526        -0.051103     -0.762882     -0.010389
Pb      15.20830     11.50698     17.31231         0.616205      0.291504      0.025010
Pb       3.79934     11.56362      8.73849         0.069594     -0.223764     -0.555611
Pb      15.27735     11.38242      8.75597         0.565547      0.076961     -0.473640
Pb       3.88749     11.44583     12.97677         0.374168     -0.071482      0.051038
Pb       0.15897     11.50421     13.14149        -0.230374      0.015456     -0.662313
Pb       7.73047      3.67207      4.41264        -0.407085      0.254986     -0.759571
Pb       7.59370      3.84268     17.41757         0.211544      0.327480     -0.327125
Pb       7.74584     15.32469      4.41742        -0.451019      0.173458     -0.685341
Pb       7.48205     15.31739     17.39254         0.035196      0.342178     -0.365982
Pb       7.65508      3.84604      8.69795        -0.106430      0.306065     -0.476865
Pb       7.66299     15.28837      8.63093        -0.312385      0.053625     -0.133078
Pb       7.83009      3.99557     13.20852        -0.181422     -0.321288     -0.722597
Pb       7.58518      0.19188     13.01100         0.586615     -0.411614     -0.020209
Pb       7.65694      7.50579      4.28851        -0.424735      0.183488      0.263796
Pb       7.55027      7.69264      0.00142         0.145753      0.105289     -0.284462
Pb       7.62565      7.80160      8.68560         0.384361     -0.361931     -0.173350
Pb       7.58961      7.64113     12.96346         0.091530      0.305368      0.445986
Pb       7.72056     11.39637      4.40467        -0.191632      0.595232     -0.224670
Pb       7.55453     11.59054     17.39088         0.039930     -0.503179     -0.351583
Pb       7.65653     11.52742      8.69207        -0.091613     -0.102487     -0.042703
Pb       7.78976     11.56162     13.01656        -0.382710     -0.079702     -0.130326
Pb      11.49044      3.73505      4.33191         0.084233      0.494948     -0.345808
Pb      11.62551      3.80612      0.09550        -0.238832     -0.094539     -0.472361
Pb      11.55460     15.25912      4.33317        -0.136067     -0.261409     -0.500873
Pb      11.35265     15.24237     17.42457         0.233890      0.408879     -0.408836
Pb      11.45611      4.03630      8.71795        -0.136379     -0.322835     -0.595487
Pb      11.44960     15.31923      8.67076         0.209546     -0.113655     -0.050670
Pb      11.59071      3.69646     13.29504        -0.701966      0.215425     -1.139235
Pb      11.49713     15.33158     13.05194        -0.019554      0.207524     -0.972766
Pb      11.50309      7.68937      4.21436         0.398377     -0.336446      0.499271
Pb      11.46540      7.60076      0.07551        -0.248473      0.456287     -0.749942
Pb      11.53603      7.69202      8.70484        -0.027185      0.242792     -0.850531
Pb      11.40679      7.65021     13.10884        -0.016599     -0.068464     -0.692289
Pb      11.56940     11.39339      4.34323        -0.059508      0.681628     -0.317393
Pb      11.32486     11.46583     17.39105         0.362591      0.016705      0.191782
Pb      11.55241     11.52947      8.78259        -0.013122     -0.286294     -0.547016
Pb      11.49980     11.44665     13.02435         0.019135      0.075832     -0.611123
Ti       1.83766      1.91620      2.24924         0.638562     -0.378776      0.882703
Ti       1.87579      1.88855     15.45237        -0.419060     -0.275845     -1.951981
Ti       1.92265     13.51053      2.17305         0.658976     -0.732952      0.335174
Ti       1.99266     13.47913     15.32996        -0.682609     -0.991784      0.679457
Ti      13.34442      1.86923      2.24710         0.670268      0.502686     -0.892368
Ti      13.36499      1.91377     15.41303         0.487734     -0.709589      2.134993
Ti      13.43728     13.35227      2.26130        -1.009975     -0.622755     -0.597599
Ti      13.39015     13.47407     15.25959         0.986718     -0.482315     -0.360322
Ti       1.83676      1.86504      6.66062         0.232759      0.611255     -0.870123
Ti       1.89190     13.46203      6.77353         0.837123     -1.112845     -0.819266
Ti      13.37755      1.89166      6.66132         0.207691      0.373287     -0.851779
Ti      13.48798     13.38608      6.63162        -0.097399      0.088019     -0.229122
Ti       1.82721      1.94487     10.94859         0.866027     -0.318847      0.089339
Ti       1.90788     13.39881     10.90538         0.044000      0.039351     -0.178123
Ti      13.44941      2.02936     10.99434        -1.151366     -0.915704     -0.425237
Ti      13.45022     13.41459     10.95193         0.263179     -0.233362     -1.091199
Ti       1.93257      5.76092      2.31957         0.653614     -0.109647     -0.979906
Ti       1.94239      5.70707     15.38714         0.427163      0.293269     -1.161897
Ti      13.50144      5.79929      2.26647        -0.006112     -0.779370      0.543660
Ti      13.43567      5.70623     15.37526         0.308168      0.318180     -1.071073
Ti       1.94609      5.78359      6.57456        -0.605628     -0.281273      0.326823
Ti      13.42533      5.77902      6.55511         0.741699      0.525265     -0.984343
Ti       1.83044      5.69660     11.07564         1.649079      0.578013     -2.325109
Ti      13.46703      5.77805     11.03924        -0.733372      0.557878      0.954763
Ti       1.96680      9.66462      2.20088        -0.041683     -0.524272     -0.507783
Ti       2.05426      9.58615     15.40718        -0.006328     -0.101821     -0.756614
Ti      13.39836      9.55653      2.24118         0.789595      0.338816      0.218140
Ti      13.47478      9.65656     15.35435        -0.277902     -0.294973     -1.161429
Ti       1.97690      9.50106      6.77120        -0.086914      0.995935     -0.084860
Ti      13.43575      9.60889      6.60664         0.015850     -1.106154     -0.968494
Ti       1.95112      9.55455     11.02945         0.262619     -0.348601     -2.148476
Ti      13.50628      9.52989     11.04282        -0.295836      0.838237     -0.331451
Ti       5.58559      1.88838      2.33217         0.952243     -0.050023      0.013346
Ti       5.68937      2.00455     15.22439         0.272461     -0.483711      0.175827
Ti       5.72152     13.47193      2.28904        -0.588235      0.180634      0.389977
Ti       5.74809     13.56003     15.21641        -0.261888     -1.128893     -1.197162
Ti       5.68780      1.87105      6.65316         0.103813      0.116047     -0.786486
Ti       5.77531     13.39934      6.61514        -0.741684     -0.008432     -0.161411
Ti       5.69296      1.89309     11.00466         0.434190      0.884541      0.103465
Ti       5.80430     13.48029     11.00848         0.033795     -0.931982     -0.761194
Ti       5.79922      5.71152      2.30439        -0.655537      0.442170     -0.592373
Ti       5.78609      5.73007     15.37190        -0.016506      1.078560     -1.445404
Ti       5.72437      5.79874      6.71169         0.358071     -0.546660     -0.382887
Ti       5.75458      5.68098     11.02029        -0.952108      0.523942     -1.474572
Ti       5.80362      9.67784      2.33785        -1.264480     -1.349434     -1.587570
Ti       5.86461      9.60458     15.34580        -0.787551     -0.236894     -1.123237
Ti       5.76810      9.59918      6.65541        -0.903957      0.591213     -0.623810
Ti       5.79826      9.58971     11.04234         0.295385     -0.245862     -0.349977
Ti       9.49429      1.90443      2.20596        -0.321334     -0.423653     -0.122835
Ti       9.51511      1.92492     15.40066        -0.081541      0.469133     -1.224073
Ti       9.54914     13.41635      2.21551         0.732730     -0.462393      0.798556
Ti       9.54160     13.44220     15.35760        -0.667335     -0.104035     -2.036411
Ti       9.57597      1.94544      6.72992        -0.114279      0.008395     -0.493452
Ti       9.63638     13.37757      6.65911         0.717435     -0.245139     -0.940535
Ti       9.61320      1.97025     10.93284         0.179404      0.368654     -0.205555
Ti       9.65827     13.46456     10.98904        -0.038114     -0.157883     -0.220105
Ti       9.64115      5.77150      2.25941        -0.754402     -0.699479     -0.333548
Ti       9.60290      5.76697     15.41062        -0.772986      0.485813      0.345996
Ti       9.56402      5.79210      6.55764         0.476748      0.722092      0.113208
Ti       9.57186      5.79462     10.95776         0.216108     -0.555571     -1.185592
Ti       9.54806      9.63932      2.36263         0.130721      0.276186     -2.177174
Ti       9.61282      9.61240     15.35972        -1.276136     -0.714098      0.335843
Ti       9.60524      9.59734      6.53237         0.799416     -0.741856      1.158060
Ti       9.64106      9.60015     10.94987        -0.703201      0.114457     -1.075725
O       2.03986      1.87900      0.47672        -0.656184      0.228676     -0.233284
O       1.76952      1.87714     13.42762         0.536593      0.056259      3.300133
O       1.96091     13.45196      0.41573        -0.256135      0.134532      0.016353
O       1.99677     13.53013     13.55660        -0.259575     -0.258353      0.301142
O      13.37818      1.95158      0.36885        -0.330524     -0.367597      2.050344
O      13.28909      1.88284     13.67420         0.300344     -0.024431     -1.189818
O      13.44612     13.13992      0.41837        -0.090229      1.164730      1.421461
O      13.55410     13.59592     13.44345        -0.741764     -0.535195      1.136235
O       1.82659      1.81953      4.76621        -0.120580      0.181161      2.038411
O       2.16415     13.40011      4.89263        -1.401206      0.298222      1.670850
O      13.37209      1.83156      4.80971         0.073228      0.146826      1.094189
O      13.49006     13.34905      4.72587        -0.087146      0.303824      1.733265
O       1.80484      1.91905      9.15432         0.069201      0.154921      0.590677
O       1.85269     13.46160      9.12665         0.241953      0.021576      0.256931
O      13.47566      2.04479      9.20331        -0.117555     -0.303020      0.867057
O      13.51821     13.40684      9.04580        -0.347616      0.295009      2.264447
O       1.89361      5.59741      0.42430         0.212261      0.492298      1.459042
O       1.94435      5.78928     13.51915        -0.402603     -0.433885      1.322431
O      13.34548      5.77356      0.43835         0.340076      0.089417      0.525844
O      13.56757      5.67785     13.51361        -0.602645      0.568884      1.977886
O       1.85197      5.88015      4.74020         0.242059     -0.384475      0.812928
O      13.56876      5.80042      4.74879        -0.242990     -0.238204      0.766552
O       1.90400      5.69938      9.15737        -0.021040     -0.483065      2.212397
O      13.44026      5.86812      9.26211         0.001936     -0.572197      0.517218
O       1.96152      9.66185      0.38564        -0.007054     -0.458897      0.875739
O       2.16244      9.47751     13.55659        -0.848735      0.475817      0.884018
O      13.35087      9.55090      0.42200         0.294444      0.095616      0.537646
O      13.46038      9.59213     13.48866        -0.045114      0.216349      1.733945
O       2.10057      9.41820      4.92744        -0.693943      0.400271      1.074537
O      13.46230      9.60643      4.72542         0.060879     -0.064761      2.009641
O       1.86607      9.52692      9.08923         0.099154      0.115395      2.964074
O      13.45289      9.35692      9.22903        -0.011955      0.805777      1.267892
O       5.57183      1.81914      0.52878         0.440362      0.192633      0.625443
O       5.69673      2.07016     13.44846         0.116311     -0.634807      0.478693
O       5.71419     13.49825      0.48465         0.259378      0.125257      0.881589
O       5.78847     13.45022     13.36241         0.048235      0.343184      1.686987
O       5.70718      1.75285      4.81644        -0.027296      0.817796      1.397918
O       5.69641     13.40124      4.80320         0.299507      0.055452      0.898575
O       5.64584      1.91253      9.24882         0.397087     -0.223823     -0.405902
O       5.88468     13.48188      9.11839        -0.103078      0.160997      2.272651
O       5.81776      5.79220      0.46533        -0.080152     -0.291069      1.115495
O       5.90275      5.68987     13.47867        -0.406674      0.031048      1.999707
O       5.78101      5.90620      4.91426        -0.009959     -0.456535      0.559583
O       5.69694      5.78685      9.09116         0.479934     -0.461707      1.932363
O       5.76609      9.54519      0.41913         0.182178      0.523997      2.239667
O       5.80063      9.66419     13.47177         0.002957     -0.163572      1.519392
O       5.63203      9.65275      4.83427         0.662547     -0.051592      1.455224
O       5.86502      9.52830      9.20816        -0.088401      0.341338      1.006314
O       9.47837      1.87076      0.40256         0.089197      0.258234      0.518685
O       9.60763      2.03944     13.51592         0.139431     -0.659489      1.709974
O       9.54491     13.25061      0.41411        -0.011373      0.690791      0.165894
O       9.43934     13.37727     13.46835         0.771154      0.624093      2.113349
O       9.55675      1.78430      4.87734         0.158049      0.278457      1.154425
O       9.81517     13.37925      4.85045        -0.625699      0.810569      0.943497
O       9.64740      2.14582      9.08742        -0.203846     -0.362320      1.178276
O       9.77111     13.28522      9.18380        -0.257841      0.187768      0.078021
O       9.43498      5.66228      0.42903         0.993503      0.091044      1.853785
O       9.50934      5.77350     13.60414         0.323847      0.265483      0.261122
O       9.68815      5.77496      4.74286        -0.233687      0.114228      0.389511
O       9.54166      5.69503      9.07174         0.204991      0.125528      2.001046
O       9.50807      9.69371      0.46907         0.262774      0.266953      1.969725
O       9.58180      9.58864     13.57671         0.477069     -0.167384      0.130703
O       9.59428      9.57490      4.73845         0.139677     -0.096223      0.099718
O       9.65295      9.67606      9.07761        -0.041334     -0.060611      2.056352
O       3.74153      2.00169      2.70338         0.502423      0.343552      0.215439
O       3.81356      1.90141     15.77890        -0.509981     -0.170841     -0.489490
O       3.76155     13.39858      2.69748         1.383624      0.033071     -0.520853
O       3.89126     13.48223     15.73905        -0.779616      0.155911     -0.348474
O      15.34422      1.72311      2.62617        -0.727243      0.037033     -0.164008
O      15.31190      1.88235     15.89154         0.662414      0.275012     -0.598522
O      15.34457     13.47912      2.62744         0.612225      0.100640      0.048446
O      15.32408     13.30740     15.68858         0.326033      0.363049     -0.073898
O       3.76115      1.78441      7.09304         0.488523      0.488535     -0.310984
O       3.89274     13.42383      7.14922        -0.656790      0.300773     -0.073712
O      15.30638      2.02115      7.13915         0.515254     -0.299035     -0.676977
O       0.02204     13.43971      7.04870        -0.308172     -0.248920     -0.614895
O       3.72082      1.89799     11.25520         0.843173     -0.337462      0.305249
O       3.85232     13.48982     11.32893         0.278848      0.334684     -0.369675
O       0.02517      2.02226     11.50726        -1.810435     -0.349675     -0.746147
O       0.07841     13.30260     11.39599        -1.057644      0.251054      0.040408
O       3.90539      5.69062      2.72044        -0.072998     -0.701034     -0.070212
O       3.85190      5.68257     15.76596         0.037290      0.442479     -0.164325
O       0.07979      5.85148      2.59682        -0.771900      0.376818     -0.198216
O      15.32512      5.70829     15.83601        -0.143222     -0.078230     -0.249470
O       3.83444      5.76808      7.09618        -0.073733      0.024098     -0.509198
O      15.34437      5.75878      7.09431         0.335662     -0.295386     -0.467382
O       3.83348      5.75288     11.36879         0.379570     -0.208570      0.137444
O       0.03755      5.68790     11.41097        -1.189194      0.037819      0.071475
O       3.82509      9.62477      2.70934         0.965089      0.327035     -0.484103
O       3.86643      9.51057     15.87185         0.206816     -0.065884     -0.384909
O       0.08813      9.52397      2.60611         0.052051     -0.326348     -0.104135
O       0.01394      9.70413     15.73422        -0.552974     -0.733354     -0.355526
O       3.84797      9.63424      7.28865         0.364470     -0.218498     -0.948431
O      15.30661      9.57558      7.18509         0.307782     -0.187231     -0.896334
O       3.87409      9.44291     11.41132        -0.091099      0.798923     -0.404425
O       0.08287      9.74828     11.43678        -0.201702     -0.216991      0.052061
O       7.57548      1.86536      2.77093         1.120760     -0.152291     -0.317922
O       7.55989      2.03414     15.60144         0.456022     -0.129210      0.300824
O       7.77967     13.55155      2.67745        -1.811724     -0.312008     -0.030089
O       7.53905     13.49739     15.76317         0.641898     -0.524557      0.085103
O       7.63705      1.91233      7.02260         0.383142     -0.080464      0.116484
O       7.72735     13.41783      6.97249         0.050935     -0.088213     -0.023894
O       7.75501      1.87314     11.34782        -0.430067      0.221240     -0.352598
O       7.84461     13.39764     11.28542        -2.303343      0.404314     -0.046520
O       7.70408      5.73856      2.80226         0.905626      0.109974     -0.552270
O       7.67538      5.70130     15.84826        -0.669902     -0.297711     -0.429614
O       7.72336      5.84637      6.95795        -0.806764      0.138556     -0.012119
O       7.56543      5.76860     11.37989         1.692314     -0.546037     -0.275222
O       7.69149      9.64083      2.76726        -0.298479     -0.358081     -0.115189
O       7.67329      9.53294     15.78894        -0.096958      0.824111     -0.196815
O       7.69688      9.71430      6.98023        -0.296761     -0.608247     -0.237580
O       7.73616      9.61962     11.25559        -0.345982      0.172872      0.246327
O      11.47332      2.05545      2.62376         0.375670     -0.756330     -0.263575
O      11.42898      1.85261     15.80428         0.143755     -0.275678     -0.099979
O      11.55337     13.23529      2.62673        -0.296694      0.434441     -0.214956
O      11.46079     13.54239     15.68139        -0.466967     -0.052911     -0.260387
O      11.47182      2.00843      7.05172         0.318147     -0.628988     -0.236080
O      11.59668     13.52148      7.04511        -0.113271     -0.181591     -0.157690
O      11.51434      1.97017     11.45600         0.652129      0.087102     -0.039668
O      11.51766     13.34066     11.37613         0.975973      0.539264      0.331572
O      11.62210      5.77018      2.68506        -1.223443     -0.490642     -0.499527
O      11.48958      5.75835     15.74819         0.784378      0.153329     -0.024386
O      11.60722      5.72603      6.94535        -1.276437      0.117149      0.280425
O      11.48091      5.99739     11.32761         0.658934     -0.311385      0.019444
O      11.51708      9.57651      2.64956        -0.056447      0.634200     -0.170618
O      11.40208      9.73675     15.84681         1.189119     -0.965985     -0.724676
O      11.55758      9.55573      7.07803         0.028785      0.372486     -0.537520
O      11.53262      9.63254     11.38890         0.175697     -0.823501      0.125596
O       1.75723      3.79876      2.75343         0.398088      0.064604     -0.227253
O       2.00399      3.81034     15.79875        -0.913008     -0.910105     -0.255502
O       2.05861     15.35228      2.74331        -0.823870     -0.092086     -0.603627
O       1.82704     15.33458     15.78943         0.274537      0.209608     -0.214195
O      13.56916      3.82824      2.58855        -0.173135     -0.254436      0.018631
O      13.38294      3.77540     15.71857        -0.290889      0.903274     -0.048161
O      13.27935     15.28736      2.55891         0.176609      0.426582     -0.235476
O      13.46901     15.29506     15.85553        -0.441230      0.205638     -0.288256
O       2.06440      3.89458      6.75121        -0.433546     -1.121093      0.296816
O       1.86796     15.35354      7.04473        -0.184636      0.189482     -0.069979
O      13.41106      3.82635      7.07399         0.076475      0.076489     -0.404986
O      13.52637     15.35063      7.04820        -0.384516      0.528724     -0.244884
O       1.97815      3.82017     11.49683        -0.589396     -0.121807     -0.658748
O       1.83608     15.30938     11.41601        -0.031662      0.527949     -0.645218
O      13.37634      3.89135     11.45730         0.160541     -0.190184     -0.284140
O      13.44196      0.02054     11.29924         0.241360      0.259827     -0.004661
O       2.26356      7.60826      2.61596        -1.640486      0.654515     -0.663543
O       1.96446      7.55858     15.66758        -0.550558      0.982244      0.625996
O      13.39347      7.69498      2.66861         0.398841     -0.211908     -0.518340
O      13.43591      7.72294     15.76433        -0.166766     -0.424522     -0.277162
O       1.92115      7.61245      7.12486         0.048021      0.533287     -0.421429
O      13.42820      7.66259      7.03406         0.108962      0.086359     -0.286606
O       1.94776      7.63026     11.40418        -0.664986      0.455255      0.060909
O      13.65357      7.73073     11.46271        -0.358592     -1.048886      0.141689
O       1.97954     11.54579      2.67134        -0.858295     -0.180977     -0.271672
O       2.02299     11.44192     15.65170         0.013783      1.169169     -0.228811
O      13.58742     11.41538      2.71009        -0.224030      0.529107     -0.376293
O      13.34700     11.55038     15.64042        -0.001178     -0.310664     -0.170377
O       1.93743     11.44056      7.14495        -0.206287      0.861432     -0.356507
O      13.44652     11.49246      7.05631        -0.003739      0.360303     -0.330251
O       2.06354     11.51895     11.32988        -0.006129     -0.560034      0.259780
O      13.36050     11.55459     11.19824         0.431252     -0.508249      0.400857
O       5.86170      3.86426      2.67810        -0.349476     -0.854442      0.175427
O       5.67836      3.86823     15.79458         0.217747     -0.661700     -0.107511
O       5.62302     15.35589      2.71218         0.284786     -0.362761     -0.259377
O       5.74960      0.06068     15.59727        -0.026189      0.157615      0.065566
O       5.80061      3.83024      6.97898        -0.437054     -0.341244     -0.099380
O       5.77491     15.31525      7.02305         0.231012      0.443996      0.184137
O       5.71588      3.76097     11.41097         0.044198      0.686617     -0.612346
O       5.75635      0.03041     11.45715         0.197105     -0.414973     -0.369910
O       5.82501      7.70754      2.74639        -0.026673     -0.113081     -0.341247
O       5.79922      7.69323     15.69304        -0.167098     -0.919236     -0.054581
O       5.63508      7.71192      7.14451         1.071446      0.529070     -0.688714
O       5.85143      7.68345     11.44342        -0.534061     -0.199650     -0.564841
O       5.81622     11.55017      2.60431         0.176017      0.173247     -0.022528
O       5.68282     11.52315     15.72520         0.346131      0.116400     -0.185057
O       5.73745     11.54162      7.16964         0.265828     -0.601388     -0.524862
O       5.73244     11.57141     11.41268         0.137748     -0.173661     -0.659791
O       9.61769      3.77178      2.66578        -0.377378      0.745779      0.016325
O       9.57055      3.85711     15.65322         0.069430     -0.702761      0.356338
O       9.60127     15.34153      2.48027         0.852452      0.089685      0.394927
O       9.30010     15.34578     15.70576         1.050255      0.258615      0.202226
O       9.57480      3.95482      6.92287        -0.056256     -1.749988      0.064893
O       9.58161     15.30448      7.22728         0.215928      0.815294     -0.729748
O       9.63647      3.94659     11.44319        -0.109586     -0.392651     -0.351869
O       9.74036      0.03565     11.23095        -0.104148     -0.046664      0.020290
O       9.72190      7.69583      2.48419        -0.501196     -0.732321      0.296592
O       9.45903      7.66844     15.84025         1.079600      0.149837     -0.314547
O       9.68423      7.72465      7.04117        -0.370984     -0.181024     -0.484455
O       9.46065      7.64667     11.37043         0.510363      0.838709     -0.003763
O       9.52283     11.52662      2.82128         0.297281     -0.178975     -0.556396
O       9.44640     11.56759     15.66920         0.166040      0.044417      0.116170
O       9.70394     11.47993      6.83249        -0.033566      0.510369      0.477778
O       9.60036     11.45459     11.52620         0.566147      0.030072     -0.709822
