  # total energy = -7879.61424802 
CRSYTAL
PRIMVEC
    15.2000000000000000    0.0000000000000000    0.0000000000000000
     0.0000000000000000   15.2000000000000000    0.0000000000000000
     0.0000000000000000    0.0000000000000000    17.000000000000000
PRESSURE
8.27183 8.57898 2.52902 0.019063 0.252261 -0.012049
PRIMCOORD
320 1
Pb       3.67468      3.87140      4.24533         0.458680     -0.081224     -0.068234
Pb       3.86590      3.87724      0.08401         0.209194     -0.040840     -0.153898
Pb       3.62712      0.13650      4.35477         0.422834      0.067828     -0.402407
Pb       3.90985     15.19831      0.00942        -0.262162      0.000097      0.096220
Pb      15.10952      3.91167      4.15317         0.481934     -0.172675      0.784106
Pb       0.04886      3.69257     16.96796         0.340751      0.359318     -0.351305
Pb      15.19274      0.20515      4.32737        -0.294332     -0.191014     -0.063736
Pb       0.05038     15.16004     16.86434         0.429175     -0.225078      0.253277
Pb       3.88420      3.73970      8.44502        -0.305302      0.299696      0.737718
Pb       3.78122     15.02990      8.61831         0.323776      0.690486      0.155529
Pb      15.18344      3.76451      8.55371         0.076739      0.156701      0.374803
Pb      15.08074     15.08601      8.66582        -0.192592      0.318329     -0.122394
Pb       3.80628      3.83690     12.69944        -0.231043     -0.647234     -0.283439
Pb       3.83315     15.14146     12.71454        -0.263222      0.145941      0.225267
Pb       0.03053      3.63231     12.72890        -0.050398      0.229965      0.262962
Pb       0.06817     15.16872     12.77609         0.354804     -0.241030      0.136196
Pb       3.62866      7.74699      4.29827         0.345717     -0.856717      0.242086
Pb       3.93656      7.62513      0.04219        -0.232328     -0.222168      0.111662
Pb      15.13822      7.79590      4.19931        -0.219742     -0.797662      0.816184
Pb       0.12338      7.64498     16.87897         0.019150     -0.278691      0.102762
Pb       3.73929      7.58876      8.40528        -0.123690     -0.236993     -0.029374
Pb      15.07828      7.49222      8.50442         0.248961      0.301074      0.428984
Pb       3.84952      7.50729     12.59228        -1.050568      0.395573      0.709005
Pb      15.13215      7.39563     12.64790         0.067320      0.716601      0.710000
Pb       3.55514     11.49197      4.29849         0.266714     -0.209471      0.093044
Pb       3.97127     11.39162      0.23567        -0.390873     -0.019643     -0.653035
Pb      15.09664     11.52520      4.19033        -0.223224     -0.625244      0.592123
Pb       0.11774     11.41997     16.94242        -0.108658      0.025907      0.199711
Pb       3.75148     11.37462      8.50325         0.015868     -0.323087     -0.091726
Pb      14.99934     11.39258      8.52344         0.275395     -0.365579      0.322938
Pb       3.76444     11.28804     12.73538        -0.037882      0.283516      0.033747
Pb       0.00673     11.18222     12.75785        -0.167338      0.461372      0.402037
Pb       7.57206      3.75894      4.11202        -0.082330      0.003272      0.788101
Pb       7.55349      3.76867     16.98605        -0.102117      0.313543      0.491170
Pb       7.60269      0.03213      4.19987        -0.274076     -0.141119      0.800133
Pb       7.62144     15.15775      0.02269        -0.416139      0.146769     -0.081736
Pb       7.67779      3.86975      8.30362        -0.139048     -0.652896      0.418847
Pb       7.58873     15.09394      8.31951        -0.250193      0.319772      0.931108
Pb       7.49999      3.81239     12.73799         0.549009     -0.249668     -0.210075
Pb       7.59755      0.04369     12.73512         0.006252     -0.397817     -0.109235
Pb       7.66287      7.67702      4.34480        -0.300228     -0.097110     -0.557955
Pb       7.43289      7.68746     16.99040         0.639963     -0.990464      0.382210
Pb       7.58688      7.59708      8.38465        -0.299686      0.020206      0.068110
Pb       7.52823      7.48971     12.69217         0.882971      0.420126      0.520096
Pb       7.55091     11.39071      4.21159         0.316353     -0.079021      0.130805
Pb       7.68303     11.40012      0.01520        -0.530330     -0.038816     -0.057097
Pb       7.51186     11.49285      8.40842         0.010078     -0.218797      0.545997
Pb       7.44164     11.22907     12.68508         0.607116      0.379887      0.329508
Pb      11.44142      3.66570      4.12441        -0.041290      0.456920      0.200539
Pb      11.43665      3.70705     16.99918        -0.499022     -0.148333      0.141397
Pb      11.44835      0.02201      4.16078        -0.040960     -0.290083      0.148915
Pb      11.47744     15.10384     16.90649        -0.528781      0.368673     -0.306213
Pb      11.35388      3.80690      8.44423         0.331102     -0.171276      0.773351
Pb      11.25675     15.17359      8.41088         0.311674     -0.090847      0.672402
Pb      11.39614      3.78959     12.80371        -0.198231     -0.106288     -0.100695
Pb      11.39851     15.09590     12.80068        -0.136864      0.337689      0.014084
Pb      11.41371      7.77973      4.12659         0.361866     -0.752244      0.456063
Pb      11.30300      7.52008     16.92977         0.047364     -0.002927      0.408460
Pb      11.27717      7.49821      8.43835         0.539835      0.703136      1.132877
Pb      11.29458      7.41109     12.75865         0.095819      0.706206      0.146120
Pb      11.42689     11.39646      4.12497        -0.270069      0.012271      0.439065
Pb      11.36653     11.45788     16.99057         0.079128     -0.293530     -0.476439
Pb      11.28764     11.48188      8.49780         0.081641     -0.552185      0.802694
Pb      11.40800     11.36609     12.80890        -0.047168     -0.603250     -0.122383
Ti       1.88019      1.92214      2.18182         0.581545     -0.580524      0.946492
Ti       2.03558      1.80537     14.98775         0.045892      0.122248     -1.252939
Ti       1.68396     13.36114      2.41051         1.038459      0.860473     -1.538700
Ti       2.00849     13.21500     14.99240        -1.656344      0.405914     -0.983349
Ti      13.36307      1.81550      2.15424        -0.620522     -0.070685      0.270883
Ti      13.35341      1.89173     15.04724        -0.171432     -0.531057     -0.596803
Ti      13.15984     13.28871      2.14993         0.683877     -0.165869      0.167525
Ti      13.34125     13.18819     14.98696        -0.287941      0.316073     -0.716250
Ti       1.89172      1.85764      6.70044        -0.052537      0.493081     -0.781006
Ti       1.79606     13.32225      6.58450        -0.246850     -1.028364     -0.314382
Ti      13.31526      1.90894      6.57656         0.564821     -0.009122     -0.475371
Ti      13.23010     13.28622      6.54697        -0.450927      0.123766     -0.494041
Ti       1.95657      1.83774     10.74727         0.071734     -0.169572      0.725605
Ti       1.84667     13.22332     10.72372         0.069406      0.757202      0.371501
Ti      13.24323      1.81090     10.79629         0.465186      0.827729     -0.861120
Ti      13.23783     13.29363     10.86773         0.264705     -1.262562     -1.154319
Ti       1.83770      5.71212      2.25122         1.482144      0.018899     -0.849695
Ti       1.89782      5.67209     14.99295         0.129020     -0.266283     -0.390149
Ti      13.30960      5.65627      2.17207         0.125633      0.737833     -0.183208
Ti      13.32039      5.71327     15.06385         0.700161     -0.736763     -1.595633
Ti       1.85145      5.63075      6.51522         0.157906      0.858756      0.571928
Ti      13.24296      5.69341      6.60001         1.046647      0.675221     -0.767766
Ti       1.84914      5.66165     10.78381         0.371084     -0.425533     -0.639247
Ti      13.28586      5.59380     10.82117        -0.523955      0.717548     -1.511801
Ti       1.84553      9.50479      2.25366         0.699710      0.180828      0.001324
Ti       1.97119      9.52266     14.99305        -0.261600     -0.451802     -0.751691
Ti      13.34291      9.48974      2.08468        -0.222901      0.082754     -1.217618
Ti      13.36529      9.42874     14.99577         0.029264      1.397379     -1.377229
Ti       1.83791      9.49400      6.60007        -0.763067     -0.658737     -0.610752
Ti      13.18267      9.49388      6.58773         0.861660     -0.425109     -0.141090
Ti       1.83000      9.48470     10.64618         0.630767     -0.478071     -0.091775
Ti      13.25541      9.45719     10.71527        -1.076164     -0.493037     -0.004989
Ti       5.64762      1.81579      2.35885        -0.300040      1.763298     -0.942414
Ti       5.73693      1.86898     14.94361        -0.330677     -0.142094      0.682767
Ti       5.56019     13.30689      2.36916         0.377200      0.296910     -0.458843
Ti       5.65432     13.23455     14.97895         0.598581     -0.029344     -0.664860
Ti       5.67725      1.87091      6.57159         0.654117     -0.955804     -0.545887
Ti       5.56705     13.26350      6.41914         1.148495      0.017223     -0.605600
Ti       5.77318      1.79868     10.73267        -0.974156      0.502957     -0.815880
Ti       5.68924     13.19543     10.77864         0.175092      0.640213      0.041886
Ti       5.70949      5.73408      2.42439        -0.442306     -0.344963     -1.820454
Ti       5.65845      5.63832     14.97699         0.623522      0.314233      1.859268
Ti       5.67623      5.62326      6.40632         0.164989      1.094066     -0.980654
Ti       5.73990      5.68071     10.56758        -0.833258     -1.423018      0.542150
Ti       5.67097      9.51536      2.38221         0.478053     -0.995153     -0.954339
Ti       5.72869      9.49350     15.03697        -1.421401      0.107209     -0.226012
Ti       5.65741      9.46253      6.44093        -0.037074      0.237779     -0.337878
Ti       5.62604      9.38288     10.70858         0.162766      1.273979     -0.446058
Ti       9.46196      1.81290      2.23871         0.289700      1.042835     -1.659444
Ti       9.46206      1.86420     14.98025         0.307246      0.432838      0.518671
Ti       9.40707     13.27202      2.22535         0.170344     -0.038659     -0.082450
Ti       9.42021     13.27294     14.94330         0.092814     -0.097115     -0.209949
Ti       9.54771      1.90960      6.43167        -0.919910      0.395585      0.096632
Ti       9.45391     13.29055      6.39318        -0.286871     -0.403226     -0.498285
Ti       9.51149      1.87417     10.76396         0.202657      0.000415      0.135096
Ti       9.46746     13.25461     10.77709        -0.438208     -0.028086     -1.135611
Ti       9.50892      5.63553      2.29303         0.271014      0.164468     -0.688205
Ti       9.51737      5.61850     15.10742        -1.208052      0.485495     -0.382711
Ti       9.55436      5.73592      6.33803        -1.319955     -0.940645     -0.466807
Ti       9.47202      5.62498     10.66103         0.718953      0.176892      1.427369
Ti       9.53603      9.47052      2.17648        -0.622535      0.714327      0.166646
Ti       9.58063      9.45953     15.07241        -0.864642     -0.537262     -1.763368
Ti       9.44372      9.52934      6.59355         0.232568      0.109585     -1.742875
Ti       9.48663      9.43672     10.81578         0.299916      0.051971     -0.640388
O       2.09385      1.79629      0.48721        -0.444099      0.171545     -1.796469
O       2.02083      1.71391     13.15893        -0.373026      0.559727      0.786379
O       1.77290     13.42169      0.64896         0.140461     -0.354505     -0.639077
O       1.83239     13.32816     13.21096         0.464730     -0.534238      0.433485
O      13.38811      1.68888      0.40875        -0.363084      0.608453     -0.725987
O      13.35078      1.84222     13.26433        -0.110158      0.154550      0.014325
O      13.11102     13.19850      0.37006         0.295386      0.520943     -0.469033
O      13.31969     13.15938     13.17845        -0.325844      0.484587     -0.185931
O       1.93934      1.89349      4.86275        -0.088447     -0.303749      0.330623
O       1.69858     13.19556      4.73149         0.552991      0.798237      0.864764
O      13.34211      1.88003      4.74528        -0.081582      0.200271      0.396452
O      13.12889     13.29603      4.77726         0.433454     -0.117145     -0.157732
O       1.83882      1.81681      8.98042         0.123762     -0.011622     -0.220909
O       1.75277     13.17454      8.90288         0.519445      0.472447      0.454353
O      13.30070      1.85776      8.97172        -0.138380     -0.125347      0.482901
O      13.25508     13.34380      9.02079         0.005969     -0.204912     -0.102199
O       1.90711      5.69601      0.44634        -0.212298      0.016035      0.323938
O       1.85744      5.60624     13.20659         0.296600     -0.073347     -0.304776
O      13.23863      5.63907      0.39318         0.413250      0.285629      0.161777
O      13.38007      5.66223     13.17302        -0.122980      0.008408      1.212969
O       1.92989      5.67662      4.76055        -0.276508     -0.243240     -0.931267
O      13.33856      5.82872      4.83558        -0.105162     -0.571219     -0.150813
O       1.74133      5.66700      9.02643         0.414084     -0.132592     -0.487662
O      13.29056      5.68109      8.96249        -0.127642     -0.463191      0.339094
O       1.89373      9.51794      0.48676        -0.171570     -0.133390      0.060327
O       1.99612      9.69227     13.22327        -0.297825     -0.422654     -0.578917
O      13.49279      9.54105      0.26720        -0.638115     -0.317087      1.127504
O      13.37274      9.48516     13.16378        -0.095767     -0.096641      0.279469
O       1.76521      9.40100      4.75250         0.395765      0.612746     -0.044259
O      13.26066      9.46890      4.78304        -0.047289      0.117406     -0.150960
O       2.01212      9.44485      8.85983        -0.260353      0.205367      0.496165
O      13.19593      9.57010      8.94000         0.019058     -0.468111      0.398589
O       5.69112      1.86293      0.55369        -0.149163     -0.205308      0.320196
O       5.72521      1.91913     13.19792         0.149595      0.108716     -0.977984
O       5.65689     13.34542      0.53633        -0.020169     -0.047578      0.602816
O       5.62989     13.03709     13.17149         0.495254      0.654314      1.080870
O       5.73628      1.80246      4.78705        -0.425125      0.323901     -0.175172
O       5.61319     13.22175      4.62137        -0.121877     -0.128968      0.154671
O       5.73633      1.76935      8.94513         0.152261     -0.037442     -0.039596
O       5.77537     13.27129      8.99367        -0.702088      0.067857     -0.461894
O       5.73416      5.62195      0.50453        -0.455666      0.362779      1.035463
O       5.49851      5.66304     13.23354         0.668534      0.018874     -0.940590
O       5.69099      5.75757      4.59503         0.245409     -0.386493      0.819491
O       5.83263      5.62150      8.81462        -0.225601      0.325466     -0.139383
O       5.62264      9.43506      0.49739        -0.082753      0.124812      0.833045
O       5.49159      9.59166     13.24013         0.823026     -0.528086      0.135509
O       5.85391      9.47443      4.62695        -0.603771      0.133157      0.144900
O       5.63693      9.36011      8.95229         0.137687      0.200737     -0.796566
O       9.31207      1.96723      0.45348         0.729610     -0.375114      0.207094
O       9.42121      1.91614     13.21245         0.184516     -0.192076     -0.122607
O       9.39445     13.14796      0.41830         0.390511      0.352643     -0.031660
O       9.48387     13.30568     13.17103        -0.229626      0.104010     -0.564665
O       9.54601      1.91359      4.66205         0.132460     -0.280740     -0.167184
O       9.48257     13.34558      4.60411         0.098022     -0.243767      0.457241
O       9.65627      1.84558      8.98522        -0.397137      0.285002     -0.228999
O       9.53144     13.25395      8.87343        -0.305448      0.176797      1.181047
O       9.62218      5.58400      0.46856         0.113126      0.215418      0.835198
O       9.43253      5.60403     13.32671         0.097834      0.271236     -0.481852
O       9.55760      5.79243      4.56094         0.150325      0.021276     -0.090359
O       9.60653      5.53749      8.92254        -0.674792      0.254615     -0.451688
O       9.58665      9.46731      0.40337        -0.145397      0.307487     -0.584561
O       9.48068      9.30180     13.25401        -0.192218      0.256719      0.595194
O       9.47145      9.51883      4.74054         0.085000     -0.346060      0.597650
O       9.47560      9.53241      9.01136        -0.296855     -0.353482     -0.137416
O       3.76696      1.93305      2.68157        -0.039439     -0.449336      0.347434
O       3.91692      1.72676     15.32715        -0.893028      0.214876      0.269807
O       3.70198     13.28837      2.61534         0.496050      0.200291      0.415245
O       3.78160     13.38209     15.40689         1.521453     -0.240854      0.098921
O       0.00067      1.83870      2.50358         0.234595      0.141509      0.580633
O       0.10977      1.90414     15.37317        -0.648881     -0.154398      0.009111
O      15.01926     13.21273      2.59923         0.305462      0.677390      0.225161
O       0.02591     13.20943     15.34096        -0.280409      0.048409      0.138958
O       3.81416      1.82023      7.15371         0.116379     -0.296730     -1.075259
O       3.77017     13.25913      6.96225        -0.840633      0.135532     -0.447421
O       0.03304      1.85913      6.88162        -0.935530     -0.277625      0.191078
O      15.08401     13.24552      6.88440         0.860068      0.139924     -0.024705
O       3.83136      1.77040     11.07543         0.120969      0.354085     -0.140905
O       3.83940     13.34642     11.13310        -0.935989     -0.542634     -0.782533
O      15.18249      1.83162     11.12438         0.260426     -0.140344     -0.009245
O      15.14465     13.27623     11.11143         0.566330     -0.013876     -0.259683
O       3.83347      5.69507      2.65757        -1.385644     -0.077538     -0.107681
O       3.78522      5.81876     15.44676         0.115709     -0.610780     -0.327851
O       0.03860      5.85256      2.66176        -0.917188     -1.051269     -0.146457
O       0.00972      5.55931     15.43037         0.596200      0.221978      0.052400
O       3.81252      5.57899      6.79925         0.105009      0.075542      0.320350
O       0.01395      5.80612      6.86707        -0.594970     -0.549613      0.048687
O       3.75466      5.74655     10.97525         1.074254     -0.553937      0.191290
O      15.14641      5.59344     11.11361         1.151324     -0.587448      0.276426
O       3.75951      9.49517      2.72771        -0.330902      0.651137     -0.278702
O       3.74645      9.43035     15.44629         1.455751     -0.354580      0.218118
O      15.17873      9.61574      2.52897         0.139985     -0.382105      0.360296
O       0.04534      9.80183     15.18029         0.069967     -0.886339      0.604312
O       3.77536      9.47176      6.82299         0.532695      0.105922     -0.061732
O      15.19899      9.42872      7.00918        -0.708192      0.268046     -0.447417
O       3.71687      9.46466     11.03792         0.456757     -0.019195      0.111247
O      15.16318      9.58764     10.98019         0.492159      0.004832      0.036094
O       7.58357      1.85830      2.56431         0.235924     -0.068843      0.651900
O       7.58690      2.00438     15.30942         0.578994     -0.047762      0.127792
O       7.58720     13.33925      2.63968        -0.388629      0.061828     -0.125465
O       7.56680     13.14150     15.33372        -0.699942      0.027444      0.133955
O       7.58752      1.83642      6.92359         1.161847      0.361276     -0.436395
O       7.49593     13.28887      6.83884         1.146404     -0.331999     -0.500415
O       7.61051      1.90735     11.16951         0.405026      0.058972     -0.028007
O       7.57349     13.24059     10.98695         0.777313     -0.051546      0.753745
O       7.65723      5.75762      2.59416         0.459715     -0.265101      0.132870
O       7.59589      5.62258     15.43441        -0.640156     -0.131199     -0.520317
O       7.62892      5.65894      6.74907        -0.327739      0.283181      0.025528
O       7.59883      5.75607     11.11473        -0.904595     -0.612942     -0.397692
O       7.61620      9.55560      2.54830         0.417171     -0.366140      0.081314
O       7.55047      9.49320     15.36767         0.819392      0.264922      0.010394
O       7.53506      9.49102      6.83577         0.173763     -0.746601      0.396982
O       7.54043      9.37367     11.21715        -0.096891     -0.115369     -0.320404
O      11.43805      1.95736      2.48423         0.219503     -0.126086      0.272991
O      11.39812      1.85289     15.35802         0.000678     -0.304751      0.045130
O      11.34265     13.35121      2.56530         0.328651     -0.265116      0.158248
O      11.31436     13.27858     15.15599         0.877131      0.524201      0.896220
O      11.41743      2.00439      6.91134        -0.223074     -0.356297     -0.683906
O      11.33430     13.09717      6.80478        -0.295217      0.857875     -0.044193
O      11.39723      1.89738     11.22649        -0.252422     -0.307310      0.025594
O      11.35663     13.34045     11.05841        -0.439619     -0.053058      0.678935
O      11.51835      5.67200      2.57770        -0.926710     -0.335648      0.233956
O      11.49299      5.74655     15.24545        -0.862814      0.040204      0.521553
O      11.33200      5.67949      6.85935         1.287095     -0.245908     -0.058574
O      11.38233      5.66292     11.15444        -0.302096     -0.160982     -0.076622
O      11.48174      9.57018      2.49649        -0.571287     -0.351320      0.122176
O      11.43391      9.37782     15.20443        -0.219174     -0.050636      0.700609
O      11.29449      9.44670      6.92991        -0.039839      0.325303     -0.281654
O      11.35082      9.21883     11.21928         0.408872      0.813914     -0.352105
O       1.86646      3.76720      2.52087        -0.211719      1.246190      0.534327
O       2.05043      3.67393     15.25956        -0.046536      1.182382      0.496592
O       1.83638      0.08222      2.67226         0.089447     -0.946902      0.887438
O       1.89041     15.14187     15.31367        -0.179133     -0.285935      0.537439
O      13.47612      3.72566      2.54380        -0.577693      1.100438     -0.136129
O      13.36790      3.76393     15.44348        -0.491191     -0.000584     -0.141121
O      13.33346     15.17905      2.62742        -0.379812     -0.291913      0.015936
O      13.30721     15.17697     15.33964         0.070289     -0.707083     -0.038391
O       1.91275      3.73506      6.96833        -0.111691      0.546541      0.024940
O       1.88916     15.15065      7.00051        -0.023258     -0.596011     -0.407003
O      13.46934      3.83601      6.93655        -0.894864     -0.525736     -0.472015
O      13.24662      0.02694      6.84393        -0.181734     -0.816347      0.122436
O       1.98868      3.72183     11.16053        -0.457187      0.076720     -0.211821
O       1.98320     15.12377     11.21929        -0.856976     -0.044528     -0.954666
O      13.28175      3.73213     11.16393         0.010996     -0.509419      0.047056
O      13.25047     15.14579     11.09145         0.024679      0.589014      0.542145
O       1.90102      7.58791      2.54857         0.009993      1.217262      0.229740
O       1.75530      7.58005     15.04392        -0.256004      0.159755      1.144602
O      13.34988      7.60030      2.54396        -0.250914      0.619671     -0.348048
O      13.44441      7.61973     15.29000         0.364773     -1.217013      0.377280
O       1.94117      7.55275      6.81156         0.343873     -0.152276      0.347534
O      13.20727      7.66250      7.00139         0.020959     -1.433596     -0.154882
O       1.84866      7.56637     11.06345        -0.295404      0.793572      0.144048
O      13.46466      7.48962     10.96686        -0.532770      0.990915      0.441161
O       1.82020     11.50959      2.69457         0.248050     -2.153466     -0.021082
O       2.07415     11.37030     15.45890        -0.174834      1.175308      0.239772
O      13.22614     11.39521      2.47568        -0.032030      0.081467      0.348904
O      13.22084     11.36183     15.24325        -0.449740      0.485162      0.509530
O       1.89158     11.37366      6.85122         0.054482      0.682892     -0.011291
O      13.23112     11.30274      6.99182         0.175802      1.747061     -0.539251
O       1.95114     11.43654     11.11761        -0.209338     -1.166576     -0.516873
O      13.05628     11.32637     11.02337         0.418447      0.475443      0.364441
O       5.67086      3.79144      2.72686         0.346885     -0.388591     -0.139219
O       5.68967      3.75672     15.41371        -0.715811      0.615820     -0.419861
O       5.72243      0.03532      2.82180        -0.717060     -1.380239     -0.581098
O       5.81938     15.16561     15.33640         0.184690     -0.687106     -0.142626
O       5.75051      3.74681      6.73922        -0.252048      0.272299      0.431159
O       5.78712     15.10895      6.69931        -0.887407      0.453944      0.597572
O       5.67662      3.75577     10.95233         0.051254      1.038093      0.452943
O       5.72737     15.16988     11.16496         0.435027     -0.601447      0.046828
O       5.70276      7.59190      2.57722         0.081553      0.800632      0.259302
O       5.74328      7.59676     15.37283        -0.251678     -0.492625     -0.161561
O       5.66492      7.55681      6.67097         0.208566      0.035914      0.647983
O       5.58098      7.54380     10.96559         0.600938     -0.751845      0.593220
O       5.72093     11.38673      2.48799        -0.359895      0.665959      0.442721
O       5.62628     11.34451     15.52074        -0.229483      0.744672     -0.190768
O       5.67481     11.35915      6.76548        -0.134464      0.009236      0.376179
O       5.68718     11.29548     11.02665        -0.024520      0.081401      0.009521
O       9.50620      3.70896      2.67841         0.163958      1.565847     -0.214357
O       9.64461      3.78810     15.42559        -0.249735     -0.907050     -0.141778
O       9.64833     15.19288      2.35605        -0.584994     -0.437025      0.765856
O       9.28276     15.17583     15.36423         0.772529      0.076168     -0.208441
O       9.47805      3.83915      6.68742         0.153839     -0.894857      0.314165
O       9.51311     15.19083      6.63836         0.347414     -0.056055      0.682778
O       9.51050      3.77670     11.16060        -0.285928      0.147675     -0.154249
O       9.45109     15.18979     11.07262         0.107015     -0.267109      0.340684
O       9.64062      7.66892      2.47580        -0.222019     -1.328891      0.324485
O       9.38172      7.49472     15.45105         0.769287      1.225713      0.218869
O       9.46990      7.51044      6.89205        -0.321200      1.416348     -0.160198
O       9.47763      7.51006     11.03619        -0.404467     -0.383568      0.271441
O       9.55430     11.42083      2.58434        -0.136218     -0.530345     -0.021873
O       9.52787     11.37022     15.31046        -0.034280     -0.716141      0.188291
O       9.29961     11.39018      6.78358         0.604992      0.111558      0.050464
O       9.48750     11.34505     11.12357         0.224284      0.067168      0.150718
