  # total energy = -7882.17809332 
CRSYTAL
PRIMVEC
    15.3600000000000000    0.0000000000000000    0.0000000000000000
     0.0000000000000000   15.3600000000000000    0.0000000000000000
     0.0000000000000000    0.0000000000000000    17.440000000000000
PRESSURE
3.17844 2.73646 6.1566 0.196569 0.269355 -0.018144
PRIMCOORD
320 1
Pb       3.83397      3.74494      4.32742        -0.109292      0.199747     -0.259081
Pb       3.76717      3.75217     17.40732         0.478798      0.051002     -0.103770
Pb       3.77570     15.28456      4.35678        -0.072787     -0.030091     -0.250851
Pb       3.68566     15.27911     17.29791         0.805731     -0.006466      0.762441
Pb       0.05685      3.72800      4.26898        -0.148815      0.365603      0.519421
Pb       0.07258      3.84985     17.40732        -0.535549     -0.376156     -0.189187
Pb       0.03677     15.32761      4.26391         0.053112      0.132606      0.634492
Pb      15.29751     15.27162     17.39022        -0.146039      0.591204     -0.264720
Pb       3.73962      3.79675      8.75964         0.314720      0.404351     -0.700383
Pb       3.85208      0.03487      8.59672        -0.269739     -0.209406      0.078402
Pb      15.31463      3.94821      8.71134        -0.644715     -0.376664     -0.317299
Pb      15.20720      0.01893      8.73004         0.185571      0.429344     -0.021063
Pb       3.77652      3.77964     12.97529         0.844331      0.435028      0.282457
Pb       3.74113      0.04421     12.91354         0.327569     -0.370472      0.139919
Pb       0.04042      3.78173     13.06691        -0.470711     -0.435004      0.136730
Pb      15.32005     15.27636     13.03912         0.176585      0.409164      0.094109
Pb       3.81697      7.65196      4.33428         0.348370     -0.318374     -0.197075
Pb       3.79079      7.54497     17.32907        -0.085035      0.481309      0.095205
Pb       0.03338      7.80169      4.29286        -0.024274     -0.498705      0.100447
Pb      15.20897      7.58145     17.38235         0.719628      0.102115      0.467324
Pb       3.79082      7.73494      8.68134         0.298293     -0.235627     -0.317968
Pb      15.35437      7.67623      8.67310        -0.360130      0.038599     -0.006098
Pb       3.80855      7.57793     12.94733         0.044519      0.008316      0.054417
Pb      15.31884      7.56797     13.09298         0.192239      0.484354     -0.363189
Pb       3.84496     11.54274      4.31889        -0.104781     -0.162692      0.120318
Pb       3.79248     11.57836     17.34915         0.456663     -0.413133      0.012530
Pb      15.24929     11.52704      4.34851         0.621548     -0.159057     -0.283073
Pb      15.26349     11.55282     17.30972         0.046476     -0.126889      0.418304
Pb       3.86797     11.50035      8.68845        -0.159864      0.230103     -0.411701
Pb      15.26196     11.48035      8.72130         0.485359     -0.065982      0.367577
Pb       3.82583     11.43165     12.98470        -0.054791      0.368540      0.087310
Pb       0.10803     11.52808     13.01243        -0.327403     -0.214151      0.235975
Pb       7.70440      3.69660      4.29390        -0.257627      0.404239      0.520698
Pb       7.55054      3.78629      0.02724         0.444013      0.315304     -0.143226
Pb       7.73460     15.25711      4.37135        -0.233010      0.517314      0.595195
Pb       7.63360      0.00019     17.39888         0.036138     -0.554888      0.323611
Pb       7.64823      3.87177      8.60838         0.568428      0.082591      0.241162
Pb       7.63408      0.00306      8.67713         0.501195     -0.145041     -0.253079
Pb       7.78790      3.92817     12.99552        -0.168606     -0.131577      0.985287
Pb       7.57203      0.13521     12.95182         0.170843     -0.690679      0.981936
Pb       7.74935      7.60364      4.33099        -0.606102      0.019976     -0.187431
Pb       7.53023      7.73974     17.38755         0.570810     -0.334263      0.231032
Pb       7.71084      7.65180      8.67075         0.165453      0.097344     -0.138240
Pb       7.65131      7.70546     12.98569         0.297131     -0.163946      0.327810
Pb       7.68505     11.48281      4.33851        -0.039871     -0.414954      0.456786
Pb       7.63202     11.48343     17.40899        -0.561007      0.539386     -0.575949
Pb       7.62997     11.57599      8.62807        -0.033560     -0.121064      0.420108
Pb       7.65358     11.47740     12.93218         0.476283      0.369777      0.389739
Pb      11.41734      3.78271      4.22813         0.735896      0.139228      0.764274
Pb      11.62406      3.80914      0.01854        -0.537806      0.136633      0.115766
Pb      11.53145     15.21308      4.35120         0.152058      0.497805      0.210407
Pb      11.36815     15.27866      0.07706         0.450288      0.435653     -0.190894
Pb      11.36397      3.89557      8.63513         1.247699     -0.465600      0.967872
Pb      11.48207      0.03520      8.67028         0.129136      0.009195      0.325645
Pb      11.59647      3.74390     13.10848        -0.209635     -0.175063      0.339392
Pb      11.57270     15.34802     12.96898        -0.410275      0.306052      0.804551
Pb      11.45364      7.64004      4.23314         0.755631      0.098834      0.651855
Pb      11.51877      7.66459     17.42744        -0.362937      0.068485      0.108903
Pb      11.52304      7.70163      8.65151         0.222020      0.140069      0.251981
Pb      11.46394      7.59682     13.10337        -0.140009      0.182061     -0.064422
Pb      11.54500     11.49088      4.22874        -0.038389     -0.047104      0.192141
Pb      11.38275     11.45444     17.39169         0.353583      0.054070     -0.202849
Pb      11.58976     11.51094      8.57638        -0.367759     -0.069785      1.201601
Pb      11.57237     11.48486     13.02590        -0.746004      0.179005      0.558545
Ti       1.98968      1.83932      2.29563        -0.091576      0.158869      1.318081
Ti       1.92833      1.90830     15.37522        -0.640848     -0.507284      3.230760
Ti       1.84886     13.34434      2.30568         1.455003      0.602731      1.397352
Ti       1.83267     13.39804     15.39781         0.006079      0.346277     -1.251472
Ti      13.53175      1.90201      2.39332        -0.403181      0.143478      0.694512
Ti      13.43781      1.90070     15.54375         0.187058     -0.403486     -1.434212
Ti      13.47638     13.49099      2.30816        -0.550241     -0.725855      1.392990
Ti      13.32421     13.39062     15.42965         1.300678      0.839261      0.985458
Ti       1.88577      1.90441      6.71392        -0.273214      0.468989      0.296154
Ti       1.84584     13.44071      6.74208         0.674606     -0.418917      0.808965
Ti      13.43216      1.98755      6.68712         0.693680     -0.679810      0.489253
Ti      13.45469     13.48393      6.74239        -0.364289      0.505988      1.163416
Ti       1.93873      1.98504     10.98201        -0.805084     -1.352936      0.815843
Ti       1.90727     13.43845     10.98211         0.237146     -0.030204      0.028794
Ti      13.41735      1.89890     11.10575         0.733320     -0.185957     -1.279434
Ti      13.43354     13.40021     11.16924         0.012923      0.248613     -0.098803
Ti       1.87727      5.74400      2.33503         0.390260     -0.539398      2.391115
Ti       1.85450      5.74516     15.37942         0.473175     -0.255094      1.168893
Ti      13.42784      5.72906      2.42047        -0.116734     -0.106021     -0.056695
Ti      13.33987      5.74177     15.40023         1.302764     -0.553706      0.565025
Ti       1.91167      5.76834      6.70732        -0.108501     -0.049504      0.942186
Ti      13.38588      5.77751      6.61404         1.501883     -0.111763      0.981143
Ti       1.85894      5.74469     11.00321         0.651673      0.450414      2.414753
Ti      13.46917      5.67285     11.19717         0.133012      0.403949     -1.111490
Ti       1.95686      9.61824      2.24847         0.373526     -0.206537      0.752991
Ti       1.78574      9.58842     15.44515         1.251251     -0.538113      0.836949
Ti      13.45497      9.59040      2.28828         0.245149      0.054710      3.004627
Ti      13.41129      9.55932     15.35998        -0.632223      0.471476      1.013785
Ti       1.96142      9.64313      6.69329        -0.281994     -0.110574      1.164047
Ti      13.49425      9.64197      6.65740        -0.334298     -1.072443      1.142107
Ti       1.92801      9.59636     11.05247        -0.476466     -0.644910      2.796369
Ti      13.45020      9.52869     11.18435         1.223919      0.042812     -0.108920
Ti       5.86592      1.79533      2.48844        -1.338389      0.332411      0.075795
Ti       5.78458      1.83859     15.47845         0.332768      0.654195     -2.049380
Ti       5.77443     13.39905      2.44897        -1.117855     -0.054179     -1.439371
Ti       5.71742     13.39350     15.30097         0.959815     -0.119430      2.573872
Ti       5.76809      2.02244      6.72345         0.392113     -0.663072     -0.896119
Ti       5.71433     13.49308      6.68923         0.339992     -0.635884      2.149404
Ti       5.79982      1.96357     10.96546        -0.383427      0.025319      0.933322
Ti       5.76277     13.44993     11.02566         0.543376     -0.028100      1.083291
Ti       5.69608      5.66221      2.34458         0.097524      0.558856      1.292407
Ti       5.72241      5.70570     15.38535         0.149328     -0.181546      1.639708
Ti       5.71746      5.76658      6.67509         0.491364     -0.320692      1.013638
Ti       5.81619      5.73765     10.99719        -0.578726      0.220231      1.831928
Ti       5.75911      9.51587      2.38199         0.211050      0.239255      1.465110
Ti       5.65005      9.53231     15.28415         0.008407      1.232487      3.001821
Ti       5.81757      9.56719      6.68531        -0.049511      0.198503      1.605134
Ti       5.77776      9.62641     11.02200         0.173969     -0.263360      0.470389
Ti       9.70529      1.87764      2.41578        -0.687550     -0.513190     -0.194622
Ti       9.64736      1.91282     15.53230         0.133313      1.309836      0.578195
Ti       9.53913     13.39179      2.42374         0.357093      0.611347      0.224655
Ti       9.62407     13.48990     15.33682        -1.235665     -0.410845     -0.446383
Ti       9.65170      1.87758      6.70582        -0.356270      0.286653     -0.519122
Ti       9.57890     13.41377      6.70630         0.488847      0.488104      0.716931
Ti       9.55742      1.91231     11.11677         1.529749      0.174604      0.420197
Ti       9.61792     13.49102     11.08496        -0.659109     -0.249438      0.729717
Ti       9.54038      5.74126      2.31540         0.242492     -0.346625     -1.601244
Ti       9.55618      5.77938     15.59099        -0.442284     -0.249486      0.022942
Ti       9.64228      5.75722      6.69564        -0.604016      0.107693      2.979972
Ti       9.73832      5.76206     11.06193        -0.463466     -0.228722      0.203505
Ti       9.62457      9.53573      2.32169        -0.647573      0.570078      1.576844
Ti       9.52497      9.62145     15.44144         0.190613     -0.487229     -0.464906
Ti       9.61234      9.65556      6.71999         0.235587     -0.957911      0.606545
Ti       9.67464      9.62120     11.08990        -0.378844      0.026686     -0.139889
O       1.92363      1.97151      0.58851        -0.081130     -0.278019     -1.627724
O       1.88589      1.91660     13.71841         0.312669     -0.094251     -3.340893
O       1.89789     13.38413      0.61670        -0.003587      0.152847     -2.746731
O       1.77939     13.42143     13.60241         0.466185     -0.026895      0.668512
O      13.58784      1.88094      0.67343        -0.240027      0.113951     -1.302518
O      13.47536      1.93158     13.76495        -0.221891      0.000084     -0.749352
O      13.42986     13.56722      0.62324        -0.019443     -0.246668     -2.101214
O      13.43756     13.42464     13.73457        -0.154860      0.189236     -2.018655
O       1.91904      1.90416      4.96291        -0.119349      0.138327     -0.531603
O       1.87983     13.44373      5.01778        -0.145496     -0.180912     -0.985966
O      13.54335      1.96235      4.96980        -0.121334     -0.192051     -1.298737
O      13.38133     13.52321      5.05178         0.120447     -0.447900     -2.270121
O       2.00249      1.97356      9.27450         0.093467      0.003920     -1.475212
O       1.96010     13.34525      9.23925         0.015887      0.316345     -0.294922
O      13.43261      1.91642      9.32753         0.161826     -0.290095      0.084747
O      13.46272     13.36814      9.44771        -0.010294      0.017433     -1.473805
O       1.94893      5.82463      0.65021        -0.069919     -0.392996     -2.494025
O       1.93788      5.79131     13.69888        -0.148924     -0.322604     -2.445757
O      13.53566      5.70347      0.67137        -0.124776      0.302942     -0.966111
O      13.37891      5.70999     13.66292         0.026913      0.359580     -0.964583
O       2.00863      5.72669      5.01188        -0.217410     -0.017774     -1.742785
O      13.32311      5.81095      4.90345         0.105847      0.071108     -1.112324
O       1.84292      5.80620      9.32360         0.124941     -0.225443     -2.141065
O      13.47551      5.70701      9.46125         0.106922     -0.170168     -0.826342
O       1.99753      9.55858      0.52411        -0.288295      0.027965     -0.628836
O       1.80497      9.68517     13.74259         0.153832     -0.288269     -1.557855
O      13.52746      9.57078      0.64534        -0.058301      0.039772     -3.591942
O      13.43672      9.52875     13.62969        -0.116274     -0.181276     -0.736694
O       1.75576      9.79789      5.01893         0.174836     -0.668537     -2.142634
O      13.46724      9.55748      4.92658         0.214706      0.298043     -0.500525
O       1.93927      9.68698      9.40790         0.293584     -0.344122     -3.822845
O      13.51479      9.73754      9.46281        -0.288948     -0.068748     -1.328393
O       5.92650      1.89943      0.77736        -0.084699     -0.156023     -1.956542
O       5.79571      1.83446     13.67307        -0.259240      0.065103      0.875146
O       5.79930     13.38537      0.67998        -0.012847     -0.285258     -0.147480
O       5.71781     13.44825     13.63746        -0.097181      0.017482     -2.616187
O       5.77872      1.97454      4.95389        -0.187431      0.162211     -0.258009
O       5.66981     13.47492      5.02457         0.183428      0.050874     -2.856950
O       5.80664      2.04015      9.23813        -0.082279     -0.353962     -1.032247
O       5.78281     13.39124      9.30653        -0.047956      0.159485     -1.414810
O       5.65315      5.62029      0.64318        -0.189271      0.086185     -1.995359
O       5.69177      5.78468     13.70768         0.293584     -0.022325     -2.318885
O       5.73898      5.77951      4.96258         0.191326     -0.042893     -1.639477
O       5.80405      5.78197      9.30429         0.108330     -0.173302     -0.846792
O       5.78841      9.60284      0.69895        -0.027661      0.458454     -2.193861
O       5.71000      9.60940     13.61357         0.052500     -0.051478     -2.492906
O       5.91484      9.49556      5.00684        -0.061402     -0.234831     -2.111968
O       5.77909      9.61619      9.29394        -0.131155      0.082547     -0.980224
O       9.69152      1.78886      0.67903        -0.003592      0.159744     -0.506231
O       9.71140      2.03343     13.81684        -0.231283     -0.197738     -1.250640
O       9.60389     13.53413      0.71521         0.081884     -0.328966     -1.453022
O       9.65155     13.48545     13.59663         0.005513     -0.045991      0.096413
O       9.62263      2.02039      4.96578         0.185303     -0.270183     -1.080040
O       9.57307     13.48819      4.96304         0.235231     -0.385569     -0.919227
O       9.73960      1.85149      9.42702        -0.627372     -0.052754     -2.052413
O       9.50236     13.64677      9.37094         0.223177     -0.063989     -1.239055
O       9.65752      5.84176      0.55738        -0.034000     -0.114998      0.284553
O       9.55742      5.74819     13.84840         0.373923      0.000838     -1.175245
O       9.49000      5.72890      5.04866         0.306604     -0.028656     -3.688463
O       9.68700      5.77413      9.31799         0.077355      0.115332     -0.279595
O       9.62378      9.58059      0.63493        -0.073811      0.192919     -2.152113
O       9.57474      9.53615     13.69936         0.126480      0.127311     -0.847021
O       9.68840      9.74465      5.00517        -0.312643     -0.352553     -1.464069
O       9.69815      9.42130      9.37451        -0.108870      0.382658     -0.549389
O       3.83133      1.87529      2.66476         0.045518      0.132323      0.651442
O       3.87991      1.83840     15.87359        -0.336999      0.018910     -0.068029
O       3.81331     13.34512      2.75910        -0.221264     -0.087086      0.435062
O       3.79318     13.46543     15.77951        -0.105045     -0.132333     -0.060443
O       0.02896      1.88127      2.78838         0.286271     -0.188623      0.051547
O      15.31672      1.96200     15.80760         1.537633      0.040582      0.598461
O      15.35624     13.39965      2.66591        -0.861244     -0.071601      0.571040
O      15.26248     13.52593     15.76510         0.822636     -0.571068      0.650366
O       3.85354      2.04687      7.01119        -0.296473     -0.012469      0.718134
O       3.87240     13.39862      7.07925        -0.664454      0.065053      0.540364
O       0.02054      1.84102      7.16290        -0.015996      0.258859      0.073102
O      15.33181     13.43550      7.15554         0.227269      0.053317      0.059256
O       3.87299      1.87029     11.38084        -0.163269      0.267852      0.275402
O       3.88157     13.39439     11.42272        -0.821508      0.302425      0.110916
O       0.07547      1.94792     11.35942        -0.378027     -0.140342      0.579486
O       0.02402     13.46120     11.45687        -0.050339     -0.176553      0.063299
O       3.81276      5.75236      2.83038        -0.205630     -0.886293     -0.036138
O       3.80775      5.67998     15.69956         0.344321      0.422253      0.921599
O      15.29602      5.68469      2.77786         1.175143      0.749861      0.132360
O      15.27869      5.80017     15.70585         0.714275     -0.461215      0.639490
O       3.87235      5.76786      7.04347        -0.731596     -0.262901      0.755602
O      15.35634      5.84765      7.04432        -0.641395     -0.431654      0.303975
O       3.86153      5.76690     11.44078         0.054289     -0.389021     -0.104094
O      15.32786      5.72538     11.54726         1.508493     -0.263374      0.317576
O       3.89053      9.66948      2.77133        -1.345369      0.082665      0.219050
O       3.74631      9.69042     15.74452         0.431267     -0.663536      0.137033
O       0.05834      9.59818      2.76195        -0.280381     -0.317554     -0.119608
O      15.28900      9.68045     15.78294         0.149789     -0.684115      0.477481
O       3.88524      9.58819      7.05372        -0.119796     -0.110814      0.328444
O       0.03933      9.60687      7.14830        -1.041288      0.143410     -0.005682
O       3.86889      9.62046     11.42358        -0.333660      0.008548      0.305323
O       0.02594      9.56307     11.40131         0.029891      0.010342      0.912645
O       7.69292      1.78556      2.89898         0.548537      0.424897     -0.082628
O       7.72032      1.88391     15.94700        -0.234531      0.413795     -0.099114
O       7.63829     13.47405      2.81811         0.401441      0.016659      0.321913
O       7.69463     13.37668     15.73517         0.007036      0.048510      0.211472
O       7.76695      1.92277      6.94556        -1.394084      0.198170      1.044561
O       7.73535     13.51200      7.15428        -1.138816     -0.172020     -0.089664
O       7.71669      2.05673     11.53515        -0.928942     -0.285090     -0.501244
O       7.70775     13.33317     11.46162        -0.827009      0.503325      0.121141
O       7.65546      5.80637      2.58943         0.093429      0.202140      0.749155
O       7.67787      5.80088     15.92005        -0.945056     -0.617359      0.075093
O       7.76572      5.70565      7.12967        -0.669343      0.349746      0.218179
O       7.76192      5.70115     11.54732        -0.706604      0.255843     -0.770073
O       7.70588      9.45361      2.76852         0.341895      0.170849      0.252234
O       7.63488      9.63596     15.76869        -0.350790      0.388510      0.363707
O       7.74407      9.63080      7.16627        -0.702454     -0.734338      0.064922
O       7.70816      9.56147     11.42543         0.046864      0.510718      0.199012
O      11.60044      1.86986      2.82401        -0.927367     -0.078307     -0.182832
O      11.59891      1.99192     15.94184        -1.493131     -0.428651      0.457330
O      11.52246     13.44405      2.75337        -0.283928     -0.042285      0.207014
O      11.52897     13.36225     15.78578        -1.254012      0.441915      0.706020
O      11.55168      2.00062      7.04143        -0.386799     -0.772393      0.386001
O      11.54900     13.45502      7.20136        -0.890176     -0.152588     -0.301962
O      11.56738      1.81839     11.37024        -0.749017      0.188516      1.044652
O      11.49057     13.50365     11.44198         0.567172      0.141407      0.332866
O      11.50850      5.65935      2.72934        -0.629365      0.226766      0.287603
O      11.57115      5.87905     15.87452        -1.122274      0.066782      0.241002
O      11.58668      5.78718      7.13496        -0.747793     -0.186703     -0.077929
O      11.65270      5.72681     11.54028        -2.581901      0.322103      0.349236
O      11.53507      9.66423      2.70866        -0.741588     -0.044132      0.116758
O      11.48568      9.52059     15.83257         0.294813      0.350288      0.238169
O      11.51138      9.58719      7.07495         0.972768      0.345386      0.293753
O      11.61014      9.63200     11.44385        -1.744648     -0.555665      0.701574
O       1.88793      3.75534      2.70691         0.134919      0.716994      0.114000
O       1.99564      3.77717     15.79087        -0.544288      0.475749      0.282159
O       1.86319     15.25640      2.69551         0.318925      0.839992      0.243279
O       1.88355     15.31349     15.79180        -0.084311      0.414472      0.156600
O      13.44613      3.80199      2.75082        -0.031922     -0.179240      0.222270
O      13.37197      3.86394     15.81469         0.327695      0.704409      0.504700
O      13.46439     15.33219      2.84657        -0.065586     -0.059503     -0.174522
O      13.39324      0.02848     15.81194        -0.049157     -0.968715      0.565413
O       1.81005      3.89201      7.24151         0.661476     -0.575703     -0.366104
O       1.97747      0.01012      7.03929         0.185482     -0.115838      0.569548
O      13.47081      3.79991      7.07387         0.247974      1.741577      0.184545
O      13.44537      0.00207      7.08446        -0.118334      0.179746      0.620346
O       1.92013      3.84870     11.46451         0.333012      0.047765      0.021347
O       1.90323      0.00762     11.35048         0.364032     -0.225317      0.310972
O      13.47286      3.73712     11.57909         0.039571      0.504468      0.231660
O      13.46446     15.34381     11.52526         0.348697     -0.122841      0.163458
O       2.04852      7.61016      2.74118        -0.930770      1.301577      0.175533
O       1.93062      7.57804     15.73389        -0.286319      1.552411      0.591256
O      13.30849      7.70535      2.69112         0.580290     -0.502079      0.349572
O      13.50037      7.73058     15.93570        -0.583844     -0.612772     -0.643545
O       1.89654      7.68832      7.11371         0.453057      0.385225      0.221471
O      13.50641      7.70264      7.16838        -0.505367      0.393144     -0.357358
O       1.95503      7.59484     11.43222        -0.270505      0.729815      0.304888
O      13.50436      7.62181     11.43310        -0.267831      0.563165      0.785207
O       1.88519     11.50275      2.67926        -0.056704     -0.890418      0.365622
O       1.78648     11.54481     15.79885         0.280135      0.113744      0.324335
O      13.42644     11.49089      2.69223         0.180991      0.836431      0.346507
O      13.44204     11.46693     15.83155        -0.506618      0.234520      0.132623
O       1.88241     11.49451      7.06641         0.409091      0.742485      0.709078
O      13.40493     11.53992      7.12428         0.435298     -0.596157     -0.284444
O       1.82851     11.47852     11.35777         0.659670      1.015275      0.717512
O      13.38294     11.58337     11.68180         0.729478     -0.765819     -0.553448
O       5.82479      3.77924      2.75105        -0.269205      0.079331      0.458238
O       5.75750      3.81038     15.75778         0.195641     -0.311957      0.627110
O       5.57356     15.28164      2.78828         0.914433      0.261434      0.507263
O       5.89893     15.33639     15.79013        -0.830955     -0.539935      0.239230
O       5.81657      3.87615      7.23001        -0.279157     -0.187525     -0.477262
O       5.67714      0.06453      7.04290         0.414659     -0.062979      0.553534
O       5.68568      3.79095     11.44920         0.356860      1.026247     -0.013230
O       5.82745      0.04409     11.33479         0.018984     -0.298987      0.100015
O       5.58180      7.64052      2.61124         0.612619     -0.147345      0.767094
O       5.83329      7.69642     15.84064        -1.143381     -0.352791     -0.351213
O       5.76736      7.58136      7.12056         0.400413      1.554001      0.358108
O       5.74294      7.73526     11.38372         0.273675     -1.217405      0.270626
O       5.84561     11.51543      2.96418        -0.238267     -0.435706     -0.457625
O       5.65522     11.48404     15.78897         0.456945      0.305985      0.006648
O       5.82563     11.48924      6.97034         0.030460      0.460388      0.618049
O       5.75764     11.54036     11.48296        -0.015846     -0.358544     -0.001852
O       9.50664      3.81343      2.66362         0.283362     -0.230826      0.362447
O       9.66168      3.85648     15.98774        -0.087257     -0.065207      0.164591
O       9.46208      0.01577      2.79202         1.208379     -0.654754      0.401757
O       9.64147      0.03794     15.88184         0.244415     -1.104445     -0.051767
O       9.63604      3.80063      7.17242        -0.121980      0.469811     -0.228286
O       9.54932     15.33982      7.06359         0.761270      0.150300      0.333027
O       9.74269      3.84755     11.45396        -0.260801      0.223990      0.366451
O       9.48493      0.04561     11.56491         0.397455      0.022742     -0.095456
O       9.68175      7.62077      2.73864        -0.203177      0.550964      0.216969
O       9.45890      7.71928     15.84156         0.758324      0.181916      0.502159
O       9.64992      7.67910      7.07779        -0.176352      0.005208      0.083847
O       9.53948      7.64021     11.50294         0.999200      0.042122      0.291133
O       9.43236     11.52490      2.69359         0.751802     -0.738140      0.189725
O       9.65207     11.57854     15.80089        -0.109730     -0.659108      0.476180
O       9.50650     11.52036      7.18577         0.805452      0.690038     -0.115530
O       9.69441     11.55796     11.36969        -0.230882     -0.964279      0.324010
