  # total energy = -7876.54947465 
CRSYTAL
PRIMVEC
    15.2000000000000000    0.0000000000000000    0.0000000000000000
     0.0000000000000000   15.2000000000000000    0.0000000000000000
     0.0000000000000000    0.0000000000000000    17.000000000000000
PRESSURE
8.17211 7.86134 1.13352 -0.231518 -0.140387 -0.072986
PRIMCOORD
320 1
Pb       3.62019      3.86259      4.31856         0.299017      0.508467     -0.504410
Pb       4.01962      3.92946      0.03216        -0.564713     -0.052733      0.639559
Pb       3.58748      0.25088      4.39636         0.135203     -0.458109     -0.601739
Pb       3.92207     15.15539     16.97800        -0.336132      0.277829     -0.065834
Pb      15.19954      3.91439      4.18426        -0.033350      0.080104      0.092926
Pb       0.18257      3.79842     16.92130        -0.704467     -0.021913      0.353180
Pb      15.14003      0.33365      4.53038         0.040557     -1.101993     -0.978034
Pb       0.07612     15.06504     16.91376        -0.059651      0.170609     -0.464018
Pb       3.98916      3.86204      8.41462        -0.720896     -0.613281      0.202021
Pb       3.84745     14.93179      8.77292        -0.166680      0.794973     -0.436586
Pb       0.12728      3.67399      8.71358        -0.264689      0.190387     -0.743429
Pb      14.88097     15.07366      8.58551         0.703506      0.259212      0.208984
Pb       3.84075      3.74920     12.57376        -0.121040     -0.197673      0.420276
Pb       3.83290     15.19171     12.80579         0.008130      0.340660      0.193803
Pb      15.16326      3.79563     12.70227         0.182263     -0.317398      0.034488
Pb       0.09025     15.17973     12.88816         0.179895     -0.102968     -0.093518
Pb       3.66066      7.73391      4.36272        -0.203826     -0.375671     -0.363761
Pb       3.85779      7.65053      0.00640         0.026762     -0.044555      0.002022
Pb      15.04275      7.90094      4.31654         0.446085     -0.645941     -0.245221
Pb      15.18335      7.55005     16.81462         0.486820      0.148796      0.103891
Pb       3.82061      7.59066      8.32583        -0.205910      0.139046      0.701042
Pb      15.03766      7.47343      8.53465         0.090103      0.319227     -0.407068
Pb       3.74669      7.40997     12.56194         0.277302      0.615272      0.734993
Pb      15.15745      7.33870     12.71656         0.009671      0.154606     -0.336583
Pb       3.47010     11.51598      4.38376         0.129699     -0.211735     -0.666650
Pb       4.09686     11.44877      0.35235        -0.778001     -0.569090     -0.794602
Pb      15.03390     11.55960      4.22760         1.053826     -0.474077     -0.186082
Pb       0.15418     11.40526     16.91527        -0.160147      0.007815     -0.382631
Pb       3.68835     11.41059      8.55905         0.186849     -0.759894     -0.017397
Pb      15.00935     11.41197      8.58909         0.496182     -0.540994     -0.008956
Pb       3.69124     11.28683     12.69989         0.887753     -0.254435      0.608279
Pb      15.16437     11.01881     12.94704         0.318160      0.878203     -0.272999
Pb       7.55675      3.79359      4.22290         0.090136      0.003608     -0.286071
Pb       7.55790      3.78139      0.09562         0.256714      0.418418     -0.079725
Pb       7.57748     15.12141      4.23739         0.321599      0.725372      0.222726
Pb       7.65575     15.09161     16.99521         0.301879     -0.096092     -0.216541
Pb       7.71114      3.72338      8.33164        -0.129833     -0.108508      0.176255
Pb       7.63009     15.12329      8.42634         0.004209      0.364837     -0.229186
Pb       7.60727      3.85865     12.76994        -0.254082     -1.051332      0.418850
Pb       7.56299     15.11060     12.83225         0.186295      0.771812      0.029696
Pb       7.77264      7.60851      4.14774        -0.626678     -0.444779      0.632836
Pb       7.55474      7.74313      0.12075        -0.241090     -0.523168     -0.505271
Pb       7.51042      7.64888      8.29489         0.619874     -0.204306      0.102136
Pb       7.40660      7.52867     12.61885         0.645344      0.348417      0.943214
Pb       7.47069     11.36541      4.26942         0.655039      0.125618      0.160990
Pb       7.58833     11.46691      0.02422         0.504350     -0.183578     -0.024660
Pb       7.52572     11.58337      8.57116         0.535621     -0.729694     -0.517304
Pb       7.48206     11.29484     12.69757         0.207084     -0.176741      0.290530
Pb      11.42768      3.84933      4.07999        -0.353035     -0.072083      0.124862
Pb      11.37309      3.60719     16.99265         0.183040      0.774012      0.024726
Pb      11.52160     15.17327      4.11695        -0.504925      0.228765      0.259573
Pb      11.50181     15.13030     16.92730        -0.229281     -0.344113      0.214444
Pb      11.44996      3.80793      8.45270        -0.500722      0.105905      0.086427
Pb      11.27241      0.02660      8.39773        -0.120017     -0.244769      0.190387
Pb      11.32623      3.70384     12.81520         0.313429      0.126367      0.093511
Pb      11.42223     15.12872     12.71143        -0.524077      0.199935      0.126688
Pb      11.48514      7.72541      4.07263         0.019385     -0.746652     -0.033724
Pb      11.37966      7.53427     16.89938        -0.259681      0.351380      0.239353
Pb      11.25595      7.49089      8.64498         0.085207     -0.098321     -0.358493
Pb      11.32945      7.50297     12.91413        -0.214927     -0.110696     -0.789417
Pb      11.38923     11.28925      4.12570         0.222322      0.603719      0.031741
Pb      11.45650     11.50151     16.78176        -0.295978     -0.584942      0.715238
Pb      11.25566     11.48309      8.51892         0.052334     -0.048392     -0.033645
Pb      11.30385     11.28257     12.58492        -0.192860     -0.149430      0.386266
Ti       1.86392      1.97122      2.21841        -0.112244     -0.664061     -1.328648
Ti       1.92776      1.97361     15.02747        -0.023313     -1.495855     -1.257391
Ti       1.96668     13.36728      2.06849        -0.870801      0.230517      0.205270
Ti       2.04598     13.24749     14.95102        -1.950935     -0.631683      0.080664
Ti      13.32181      1.93194      2.18113        -0.584792     -0.289247     -1.037037
Ti      13.29255      1.86648     14.94228         0.838432      0.010490     -0.413917
Ti      13.45315     13.35197      2.19432        -0.668985     -0.713129     -1.558985
Ti      13.28852     13.28577     14.84048         1.667018     -0.140840      0.543615
Ti       1.87740      1.84747      6.69653        -0.107343      1.276779      0.180740
Ti       1.85648     13.32552      6.61613        -0.538377     -0.201431     -0.940583
Ti      13.26795      1.88869      6.56494        -0.753433      0.525003     -1.303557
Ti      13.34624     13.29791      6.38323        -1.723854     -0.607604     -0.268232
Ti       1.89519      1.82755     10.72840         0.486607     -0.208974     -0.526496
Ti       1.95355     13.21262     10.85070        -1.192398      0.260761      0.197593
Ti      13.26617      1.78688     10.82732        -0.008980      0.953288     -0.041320
Ti      13.37252     13.21978     10.85792         0.200892     -0.479127      0.376589
Ti       1.82700      5.81854      2.22680         0.835179      0.065090      0.305992
Ti       1.98714      5.65153     14.89983        -0.434189      0.129506     -0.589766
Ti      13.31269      5.71510      2.05188        -1.409737      0.342966     -0.056341
Ti      13.21633      5.57125     15.04214         0.750275      0.314173     -0.811815
Ti       1.85993      5.67494      6.53779        -0.963252     -0.500551     -0.269716
Ti      13.26435      5.59588      6.27517         0.292296      1.213051      0.294565
Ti       1.92876      5.61373     10.55414        -0.060908     -0.345677      0.433503
Ti      13.22993      5.59344     10.74191        -0.539038      0.078080      1.670628
Ti       1.85078      9.55865      2.20541        -0.571603      0.083234     -1.590596
Ti       1.96328      9.41649     14.95846         0.291222      0.235921      0.210877
Ti      13.31749      9.60750      2.05423        -0.349425     -0.971963     -0.259232
Ti      13.22205      9.42149     14.99349        -0.234165      0.648557      1.708302
Ti       1.78399      9.48043      6.61775        -0.082052      0.084277      0.177611
Ti      13.19700      9.47427      6.59681         0.537038     -0.613246     -1.239813
Ti       1.91106      9.36778     10.76294        -0.073583     -0.097355     -1.364145
Ti      13.27631      9.40294     10.83966        -0.181931     -0.940577     -1.319965
Ti       5.66540      1.92030      2.29003        -0.583985      0.530215     -0.356848
Ti       5.69766      1.90853     15.04575         0.458831     -0.650629     -1.627660
Ti       5.71907     13.35086      2.39736        -0.562370      0.034659     -0.663479
Ti       5.71647     13.28054     14.94537         0.297239     -0.717887     -0.805978
Ti       5.64334      1.83195      6.40338         1.055591      0.208601     -0.376782
Ti       5.63193     13.29783      6.42511         1.345915     -0.505366      1.117429
Ti       5.71802      1.82925     10.62399         0.087776      0.892217      0.236915
Ti       5.75123     13.28853     10.78084        -0.234454     -0.712434      0.576113
Ti       5.63466      5.80526      2.37560        -0.499393     -0.691888     -0.945111
Ti       5.70065      5.70719     14.99827         0.807626      1.358142     -1.167877
Ti       5.71960      5.68125      6.38573         0.173766     -0.084211     -0.996527
Ti       5.75722      5.64088     10.58636        -0.782550     -0.259083     -0.706042
Ti       5.69379      9.53637      2.41937        -1.001367     -1.643191     -0.521013
Ti       5.66242      9.52048     14.95405         0.377439     -0.532009     -0.955281
Ti       5.66213      9.57990      6.48828         0.080229     -0.233399     -0.875875
Ti       5.71960      9.48399     10.63128        -0.662985      0.349456     -0.459274
Ti       9.48535      1.85936      2.19071        -0.219158      0.033452      1.475146
Ti       9.49050      1.84281     15.09993        -0.297903     -0.144636     -1.786291
Ti       9.57313     13.34106      2.31122         0.203604     -1.364803     -1.630903
Ti       9.52306     13.24125     14.89979        -0.516565      0.240742     -0.240393
Ti       9.50004      1.82313      6.29659        -0.713549      0.305865     -0.945671
Ti       9.55507     13.23991      6.34728        -0.654575     -0.073106     -0.062234
Ti       9.44107      1.82202     10.78099         0.038401     -0.406180     -0.375730
Ti       9.47288     13.22819     10.83150         0.312757     -0.326948     -0.321148
Ti       9.45927      5.71910      2.13130         0.357076     -0.345411     -0.733481
Ti       9.39370      5.71841     15.06287        -0.461303     -0.164266     -0.828767
Ti       9.59620      5.65797      6.34440        -0.723121     -0.249590      0.592012
Ti       9.46401      5.57406     10.87413         1.159599      1.031342     -1.763509
Ti       9.45294      9.55159      2.20778         0.319154      0.539596     -1.039163
Ti       9.33422      9.50996     14.92289         1.273104     -0.063372      0.450724
Ti       9.55321      9.45533      6.38223        -1.262353      0.193959      0.908957
Ti       9.43294      9.34602     10.65430         0.418115      0.535985      0.222887
O       1.78723      1.86909      0.43545         0.439566      0.722141     -0.499033
O       1.81495      1.99908     13.20204         0.327134     -0.121281      0.433929
O       2.04825     13.19733      0.24531        -0.243391      0.267225      0.413391
O       2.05364     13.09562     13.17128        -0.337821      0.659331     -1.116340
O      13.27991      2.04491      0.36058         0.039486     -0.627722      0.814590
O      13.35540      1.88717     13.09637         0.023778     -0.394523      0.561007
O      13.50339     13.24829      0.33476        -0.720971      0.351543      0.861006
O      13.32897     13.44888     13.07308         0.019481     -0.487575     -0.325534
O       1.65218      1.82474      4.83358         0.549792      0.196633     -0.378298
O       1.77036     13.36038      4.78873         0.485239     -0.337258      0.900971
O      13.30347      1.83180      4.71992         0.199084      0.062793      0.131397
O      13.41747     13.20863      4.59536        -0.469602      0.592255     -0.138463
O       2.04782      1.90627      8.92192        -0.569929     -0.496361     -0.471337
O       1.99714     13.29539      9.03766         0.170176      0.119088     -0.321478
O      13.17151      1.86756      9.02464         0.207391     -0.171755     -0.995817
O      13.28263     13.10324      9.06123         0.017555      0.672388     -0.364505
O       2.02710      5.80418      0.46082        -0.388889     -0.164036     -0.064843
O       2.10958      5.58652     13.08864        -0.961436      0.171245      0.534802
O      13.29908      5.62125      0.23039        -0.030222      0.127697      0.481187
O      13.27562      5.53750     13.21035        -0.158224      0.521293      0.131920
O       1.82014      5.66314      4.74255        -0.357939     -0.320253     -0.132050
O      13.21269      5.58829      4.47313         0.109029      0.249134      0.382456
O       2.02870      5.61967      8.77030        -0.698902     -0.028287      0.439137
O      13.19123      5.57575      9.01412        -0.270296     -0.069295     -1.276357
O       1.81474      9.56008      0.34860         0.390796     -0.460874      1.135196
O       1.96017      9.34841     13.13026        -0.307638     -0.060511     -0.098903
O      13.20081      9.56324      0.28178         0.409703     -0.133800      0.051588
O      13.24475      9.43883     13.26138         0.157397     -0.366971     -1.897673
O       1.76751      9.47413      4.80069         0.067361      0.566633      0.093388
O      13.14617      9.41676      4.63980         0.300267      0.644423      1.442885
O       1.75029      9.34431      8.94700         0.468647      0.254310      0.549490
O      13.27995      9.26709      9.01843         0.235516      0.668061     -0.399168
O       5.58017      2.00636      0.45429        -0.021017     -0.600382     -0.059414
O       5.76086      1.81183     13.20223        -0.009793      0.188167      1.103620
O       5.53480     13.26078      0.54457         0.633983      0.118506     -0.095218
O       5.77616     13.29571     13.14668        -0.012116     -0.014960      0.137300
O       5.70718      1.88676      4.56195        -0.220043     -0.126005      0.532818
O       5.70558     13.34075      4.68154        -0.496426     -0.435158     -1.272110
O       5.72956      1.84804      8.83636        -0.270600     -0.137519     -0.088425
O       5.77683     13.22726      8.98627        -0.540182      0.349179     -0.828734
O       5.58487      5.87297      0.45500        -0.283020     -0.501212      0.773002
O       5.80359      5.71812     13.10219        -0.128764     -0.093032      0.925772
O       5.59290      5.49366      4.51731         0.560045      0.367841      1.842864
O       5.55882      5.65340      8.73932         0.903496      0.121571      1.164720
O       5.75046      9.45103      0.59948        -0.444758      0.407709     -0.080618
O       5.78027      9.41467     13.15257         0.023815      0.190260     -0.085919
O       5.49543      9.60727      4.67414         0.294380      0.036814      0.309915
O       5.66083      9.53020      8.84220         0.336590     -0.286494     -0.433889
O       9.63866      1.67651      0.43664        -0.455862      0.075968     -1.204073
O       9.46032      1.80396     13.28671        -0.061153      0.086933      0.045081
O       9.54654     13.40627      0.42848        -0.151255     -0.240216      0.913187
O       9.44842     13.13191     13.10688         0.124546      0.306027     -0.505649
O       9.46374      1.81295      4.49160        -0.120393      0.449564      0.834509
O       9.55198     13.11209      4.56210        -0.120158      0.498737      0.805105
O       9.43135      1.85684      8.97577         0.163627     -0.294103      0.004286
O       9.39943     13.25551      9.03279         0.418299      0.410320     -0.683691
O       9.28564      5.77372      0.35454         0.840946     -0.197318     -0.221829
O       9.33791      5.69540     13.14009         0.142081     -0.314807      1.212922
O       9.57568      5.56881      4.58724        -0.250134      0.102190     -0.617145
O       9.50107      5.75054      8.99150         0.111686     -0.496175      0.716191
O       9.32232      9.59168      0.42426         0.267626     -0.098814      0.391052
O       9.41364      9.55098     13.14796        -0.048916     -0.058479     -0.181151
O       9.70561      9.50370      4.59802        -0.595209     -0.041446      0.159074
O       9.42972      9.22733      8.87198         0.213120      0.070945     -0.319586
O       3.67799      1.88345      2.71680         0.660494      0.239441      0.113488
O       3.84294      1.77418     15.26524        -0.192112      0.362238      0.354049
O       3.74429     13.13068      2.57637         0.332876      0.314638      0.380979
O       3.82735     13.37243     15.19369         1.223407     -0.102651      0.637084
O      15.12721      1.90354      2.56598         0.283554      0.140080      0.414422
O       0.01285      2.02018     15.29089        -0.303031     -0.018898      0.124747
O       0.04836     13.31869      2.48889         0.355834      0.206028      0.146665
O       0.02941     13.22666     15.17928        -0.004296      0.088245      0.194179
O       3.74564      1.88620      6.56768         0.582019     -0.351978      0.239249
O       3.77843     13.21138      6.87888        -0.086580      0.288475     -0.062945
O      15.07801      1.86002      7.00877         0.721171      0.029315      0.083364
O      15.09331     13.25102      6.84761         1.789894      0.328464      0.809525
O       3.77175      1.70648     11.10613         1.028498      0.093366     -0.048622
O       3.94999     13.42912     11.18826        -2.125864     -0.084681     -0.518449
O       0.05448      2.08317     10.99563        -1.188949     -0.495061     -0.051151
O       0.06866     13.01216     11.02729         0.395313      0.558147      0.250583
O       3.66702      5.76616      2.72655         0.294999     -0.060457     -0.312972
O       3.86157      5.81296     15.16809         0.097792     -0.405783      0.646526
O      15.07864      5.59925      2.38705         1.446007      0.031191      0.373062
O       0.04347      5.61930     15.14565        -0.338745     -0.026328      0.418847
O       3.73923      5.73082      6.75618         1.305276     -0.476210     -0.420915
O      15.03348      5.48710      6.82624         1.040739      0.154855      0.157205
O       3.77801      5.69137     11.02738         1.457390     -0.129767     -0.715539
O      15.15333      5.59843     10.92923         0.544164     -0.398541      0.307462
O       3.62088      9.47686      2.55735         1.637577      0.338932      0.421710
O       3.84031      9.42045     15.16981        -0.930762     -0.181152      0.650143
O      15.16278      9.47544      2.46842        -1.116193      0.151788      0.400468
O      15.19272      9.52925     15.32702        -0.659926     -0.846292     -0.515547
O       3.73581      9.44393      6.82006        -0.134910      0.352025      0.135924
O      15.14372      9.47538      6.91007        -1.124082      0.008231     -0.044239
O       3.84802      9.23718     10.95017        -0.837084      0.065617      0.233682
O       0.04860      9.29821     11.16249        -0.572031      0.439629      0.401268
O       7.52732      1.77585      2.47860        -0.032554      0.208456      0.052155
O       7.63207      1.80915     15.47326        -0.843906      0.389530      0.224006
O       7.57625     13.26098      2.55355        -0.770249      0.331247      0.259044
O       7.64954     13.19506     15.31148        -0.930824      0.125381      0.295213
O       7.61082      1.83546      6.60772        -0.981963      0.248046      0.576914
O       7.64432     13.17884      6.72833        -0.858908      0.373299      0.176379
O       7.56985      1.96964     11.05706         0.109689      0.022844      0.124353
O       7.56791     13.03179     11.06608         0.569780      0.369358      0.200442
O       7.57138      5.63882      2.50186        -0.881403      0.493071      0.785580
O       7.53276      5.64491     15.53919        -0.016769     -0.173336     -0.842626
O       7.60619      5.65095      6.62516        -0.397540     -0.045332      0.192091
O       7.61298      5.37129     10.99800        -1.299165      0.724409     -0.284844
O       7.55310      9.42132      2.68502         0.134870      0.085106      0.374425
O       7.55309      9.64854     15.41529        -0.021776      0.185469     -0.085576
O       7.59775      9.49759      6.62192         0.444747     -0.332282      0.079040
O       7.59719      9.67453     10.92874        -0.443657     -0.585968      0.314665
O      11.30424      1.75640      2.53284         1.551253      0.429121      0.098327
O      11.43345      1.68124     15.24614        -0.275528      0.613695      0.404916
O      11.44070     13.32302      2.50371        -0.057681     -0.623282      0.155796
O      11.40771     13.28853     15.21338         0.577642      0.767998      0.153509
O      11.34257      1.67773      6.65628        -0.092238      0.241415      0.855810
O      11.45909     13.33699      6.80440        -1.477701     -0.229707      0.174182
O      11.38195      1.69495     11.06434         0.043287     -0.454772      0.393201
O      11.42723     13.31885     11.09259        -0.095465     -0.209095      0.057701
O      11.31384      5.68489      2.35274         0.595627     -0.084236      0.229756
O      11.32685      5.66947     15.34363        -0.695429      0.533679     -0.134149
O      11.42134      5.69561      6.79121        -0.654457     -0.228957      0.286812
O      11.30761      5.73496     11.18260         0.650740     -0.214017      0.110642
O      11.35360      9.55567      2.49049         0.512902     -0.010535     -0.215287
O      11.26961      9.36260     15.36080         0.835864      0.311518     -0.292256
O      11.35597      9.48629      6.94059         0.419738     -0.058557     -0.072424
O      11.36680      9.36241     11.06924         0.081813      0.066255      0.246991
O       1.88803      3.84346      2.59356        -0.522208      0.115943      0.032152
O       1.98409      3.80924     15.42540         0.606511      0.305798     -0.086574
O       1.85914      0.05563      2.28152         0.353988     -1.072537      1.000527
O       1.89732     15.18058     15.13048        -0.411228      0.264929      0.505780
O      13.14803      3.80173      2.53454         0.250681     -0.655106     -0.387799
O      13.06512      3.74135     15.27002         0.498867     -0.552860      0.073173
O      13.22644     15.15911      2.46624         0.385369      1.522401      0.125734
O      13.43913     15.18763     15.27157        -0.191307      0.128048      0.130545
O       1.86440      3.74862      6.88809        -0.090059     -0.141084      0.016709
O       1.82004     15.18829      6.86528         0.066738     -0.597346      0.538560
O      13.05404      3.74299      6.66411         0.087823     -0.506217      0.488373
O      13.24973     15.14855      6.81657         0.501082      0.163724      0.485483
O       2.01769      3.70812     10.97847        -0.016740      1.194867      0.037806
O       1.78909     15.13434     11.10501         0.064491     -0.180765      0.321774
O      13.11136      3.71475     11.14673         0.234467      0.122726     -0.217445
O      13.55564     15.12088     11.04441        -0.153095      0.171816     -0.090071
O       1.73983      7.66113      2.76294         0.098013     -0.435151     -0.642478
O       1.97115      7.46894     15.37155        -0.841423      1.204484     -0.243461
O      13.21538      7.60092      2.43096         0.178946      0.333168     -0.187198
O      13.22140      7.51940     15.24134         0.383229      0.334795      0.337100
O       1.76933      7.53497      6.80917        -0.066379      0.517918      0.284615
O      13.32235      7.52350      6.63751        -0.117812      0.633291      0.442043
O       1.82099      7.41325     10.98076         0.213178      0.774766      0.436215
O      13.22531      7.50195     11.09086         0.569344     -0.339910      0.725281
O       1.76997     11.50774      2.54950         0.186945     -1.406925      0.367915
O       1.87861     11.27145     15.14957         0.355565      0.598363      0.246505
O      13.36618     11.42663      2.50667        -0.436852     -0.447431      0.151572
O      13.19804     11.41761     15.10844         0.124054     -0.753082      0.207261
O       1.81328     11.42936      7.05773         0.213860     -0.422562     -0.594997
O      13.29288     11.41719      6.81414        -0.331245     -1.108102      0.120905
O       2.09706     11.30847     11.04825        -0.080135     -0.518556     -0.321482
O      13.41896     11.24102     11.16880        -0.844085      0.660271      0.080080
O       5.55637      3.87300      2.38521         0.175143     -1.264053      0.512620
O       5.64031      3.82526     15.28058         0.273606     -0.377694      0.260689
O       5.51683     15.18595      2.47547         0.202288     -0.030317      0.439077
O       5.77688     15.13209     15.23446         0.008434      0.514862      0.893830
O       5.74971      3.71146      6.81600        -0.396896      0.689176     -0.478077
O       5.71285     15.13578      6.78933        -0.298673      0.217897      0.187269
O       5.58812      3.75908     10.96326        -0.166612      0.214068     -0.221459
O       5.83141      0.00153     10.94658         0.207451     -0.731966      0.350576
O       5.52282      7.61612      2.76150         0.698036      0.193105      0.099471
O       5.81022      7.68698     15.38781        -0.041730     -1.147488     -0.114561
O       5.72445      7.58915      6.70031        -0.396518     -0.451393     -0.084798
O       5.87736      7.57183     10.82201         0.148454     -1.410819      0.264492
O       5.68809     11.31552      2.60285        -0.267651      2.118929      0.167163
O       5.59163     11.38974     15.34746         0.218464      0.665541      0.475705
O       5.75517     11.38607      6.88666        -0.739694      0.697532     -0.267378
O       5.49918     11.32538     11.05620         0.330858      0.419733     -0.013978
O       9.40384      3.76226      2.30916         0.124206     -0.617935      0.385934
O       9.44946      3.79625     15.26526         0.242421     -0.683719      0.639905
O       9.42801     15.09634      2.75584        -0.016702      1.136596     -0.489502
O       9.48933     15.11021     15.27630        -0.251495      0.233558      0.290169
O       9.41861      3.71138      6.77359         0.942357      0.401581     -0.223543
O       9.27613     15.15919      6.73865         1.266127     -0.774391      0.094911
O       9.64990      3.65681     11.17818        -0.384815      0.751127     -0.163194
O       9.35251     15.09852     11.14737         0.081204      0.354377      0.009323
O       9.37360      7.61178      2.43980         0.472269      0.135334      0.485315
O       9.31877      7.60604     15.24016         0.208348     -0.113124      0.185995
O       9.50182      7.52550      6.61061        -0.069629      0.716735      0.256953
O       9.38154      7.53729     11.19395        -0.165016     -0.243876     -0.390307
O       9.29705     11.39327      2.58342         0.669542     -0.071659     -0.003636
O       9.60877     11.41540     15.26506        -0.277270     -0.714405      0.415392
O       9.49102     11.39787      6.87315         0.635631     -0.498230     -0.209537
O       9.57847     11.27373     10.86000         0.513182      0.727900      0.561244
