  # total energy = -7879.20766728 
CRSYTAL
PRIMVEC
    15.6000000000000000    0.0000000000000000    0.0000000000000000
     0.0000000000000000   15.6000000000000000    0.0000000000000000
     0.0000000000000000    0.0000000000000000    17.640000000000000
PRESSURE
-3.7189 -3.98923 1.84414 -0.083642 0.365319 0.015369
PRIMCOORD
320 1
Pb       3.86806      3.83525      4.39338         0.240221      0.213121     -0.256921
Pb       3.99381      4.00059     17.58149        -0.457575     -0.870382      0.034647
Pb       3.75216     15.45463      4.34288         0.104845     -0.230850     -0.048250
Pb       3.79011     15.57216      0.05006        -0.072629      0.408978     -0.623106
Pb      15.54031      3.84521      4.35948         0.078090     -0.202328     -0.523448
Pb       0.03938      3.98021     17.59899         0.503374     -0.676282     -0.155722
Pb      15.57815     15.53725      4.35245         0.187111      0.587739     -0.695594
Pb      15.40312     15.58467     17.61356         1.018388     -0.043295      0.232228
Pb       3.83197      4.01408      8.79792        -0.103003     -0.189492     -0.421620
Pb       3.88967     15.57698      8.75175        -0.087977      0.224958     -0.490616
Pb      15.55527      3.99020      8.83330         0.055025     -0.082826     -0.219340
Pb      15.51454     15.59867      8.63923         0.215708      0.289497      0.264103
Pb       3.95819      3.74668     13.27523        -0.272695      0.346650     -0.824212
Pb       3.89636     15.57528     13.14782        -0.265038      0.463078      0.011978
Pb       0.02142      3.93838     13.15548         0.315372     -0.106667     -0.050345
Pb      15.50010     15.56465     13.20410         0.356824      0.201871     -0.453739
Pb       3.95604      7.75841      4.43402         0.088353     -0.196276     -0.495077
Pb       4.00650      7.72968     17.57989         0.057350      0.156623     -0.455862
Pb       0.03904      7.76464      4.30052         0.074840     -0.678930     -0.042699
Pb       0.08571      7.73635     17.48693         0.052433      0.548964     -0.062066
Pb       3.87589      7.80751      8.78261        -0.250121     -0.391201     -0.004622
Pb      15.48681      7.78832      8.81960         0.696957      0.362037     -0.318116
Pb       3.91326      7.73834     13.18061         0.616958      0.031032     -0.467582
Pb       0.09444      7.75940     13.15799        -0.068571     -0.007130     -0.029899
Pb       3.90336     11.64245      4.33317         0.145835      0.446926      0.059207
Pb       3.84465     11.72367     17.57614        -0.081235     -0.676380      0.311601
Pb      15.59833     11.73052      4.29441         0.245190      0.013585     -0.237640
Pb       0.00104     11.71476     17.44497         0.104309     -0.134438      0.390538
Pb       3.82266     11.76839      8.86887         0.101979     -0.344703     -0.602375
Pb      15.53802     11.79660      8.75313         0.087843     -0.778036     -0.170871
Pb       3.85451     11.78451     13.15453         0.020972     -0.646725      0.088483
Pb      15.45333     11.79615     13.16823         0.124571     -0.277239     -0.141262
Pb       7.74594      3.67199      4.41946         0.225343      0.448173     -0.187602
Pb       7.77232      3.93629      0.00423         0.008216     -0.087624     -0.203152
Pb       7.61153     15.49589      4.42391         0.544732     -0.323034     -0.737271
Pb       7.68634      0.02987     17.55521         0.243613     -0.104434      0.199100
Pb       7.58591      3.94561      8.83540         0.494188     -0.125740     -0.934934
Pb       7.74507      0.03170      8.80893         0.230836      0.018044     -0.439472
Pb       7.88048      3.92815     13.27061        -0.321885      0.334127     -0.617510
Pb       7.81582      0.11127     13.12433         0.112930     -0.262509     -0.278992
Pb       7.86266      7.66991      4.38340        -0.190705     -0.010977     -0.278133
Pb       7.77612      7.78775     17.61615        -0.048206      0.030633     -0.460807
Pb       7.70659      7.82588      8.79379        -0.044582     -0.074040     -0.585889
Pb       7.78922      7.82557     13.17407        -0.422916     -0.203834     -0.034381
Pb       7.77790     11.57922      4.36295         0.070346      0.121913     -0.414119
Pb       7.77549     11.65696     17.49129         0.443754      0.014248      0.106777
Pb       7.79935     11.75893      8.71084        -0.353557     -0.014752     -0.462373
Pb       7.74002     11.81114     13.10775         0.132172     -0.275152      0.015571
Pb      11.76533      3.80482      4.32194        -0.388523      0.206025      0.101225
Pb      11.68078      3.81007      0.02524        -0.409583      0.171045     -0.433645
Pb      11.62082     15.46399      4.37827        -0.315835      0.031802     -0.742534
Pb      11.58664     15.50794      0.01120        -0.006079      0.193514      0.172344
Pb      11.63935      3.92128      8.74051        -0.130216      0.097647     -0.455074
Pb      11.75489      0.01227      8.73931        -0.620771     -0.205521     -0.126259
Pb      11.76934      3.92017     13.13757        -0.088802     -0.318073     -0.631071
Pb      11.64594      0.00992     13.12404         0.008347      0.060205     -0.100974
Pb      11.67641      7.74163      4.32810        -0.070046     -0.512568      0.297373
Pb      11.63875      7.71958     17.56654        -0.113008     -0.014830     -0.204607
Pb      11.64077      7.79624      8.74973        -0.139182      0.203187     -0.651709
Pb      11.67894      7.75230     13.12116        -0.258864      0.269444      0.070073
Pb      11.68967     11.48788      4.28747        -0.237840      0.538020     -0.094600
Pb      11.65243     11.64827     17.51980         0.003363      0.193115     -0.105737
Pb      11.68465     11.75120      8.83313         0.129356     -0.194324     -0.841555
Pb      11.61704     11.69861     13.19398         0.232590     -0.253723     -0.536564
Ti       2.07358      1.94367      2.43913        -1.496591     -0.131671     -0.492979
Ti       1.94561      1.89775     15.59536         0.498427     -0.073829      2.946912
Ti       1.92501     13.61835      2.25569         0.502415      0.181833      0.706072
Ti       2.06416     13.60429     15.55607        -0.540158      0.724703      2.073182
Ti      13.67807      1.91757      2.29626         0.315248     -0.525170      2.715089
Ti      13.63276      1.97316     15.73553         0.465801     -0.705563      0.269192
Ti      13.64369     13.57978      2.33525        -0.484947      0.517836      1.790781
Ti      13.72008     13.70906     15.51626        -0.071052     -1.156785      2.505966
Ti       1.88507      1.94833      6.77390         0.089940     -0.108876      0.274080
Ti       1.91596     13.72004      6.86125         0.789117     -0.951521     -0.009694
Ti      13.56277      1.91875      6.77488         0.836576      0.646008     -0.238477
Ti      13.58495     13.61103      6.72121        -0.523418      0.009201      2.111618
Ti       1.91908      1.91333     11.17072         1.259805      0.039635     -0.336698
Ti       1.98204     13.58933     11.12360        -1.249969      0.487650      1.155470
Ti      13.67746      1.92908     11.19243        -0.469936     -0.161755      2.181180
Ti      13.58303     13.65776     11.13458         0.201685      0.286963      1.078973
Ti       2.03925      5.79292      2.23968        -0.291941      0.092132      2.428353
Ti       1.94587      5.79222     15.53719         0.305902     -0.563814     -0.443447
Ti      13.66601      5.77637      2.28275         0.172242      0.361023      2.778351
Ti      13.66405      5.82744     15.62428        -0.561132     -0.115800     -0.495663
Ti       1.83486      5.81850      6.79309         1.125952      0.848975      1.725883
Ti      13.67906      5.83795      6.82602        -0.939832     -0.029059      0.258460
Ti       2.05275      5.82437     11.18431         0.003075     -0.726042     -0.630382
Ti      13.67435      5.91911     11.21813         0.074136     -1.217977     -0.305598
Ti       1.96349      9.69812      2.38302         0.191256      0.253586     -0.205891
Ti       1.96359      9.70324     15.51871        -0.042091      0.495709      1.221523
Ti      13.70078      9.62957      2.49649        -0.614600      0.702592      0.637587
Ti      13.65894      9.70221     15.65719         0.210051      0.612229      0.039306
Ti       2.02903      9.78911      6.84504        -1.155231     -0.509492      1.665419
Ti      13.72096      9.70096      6.75227        -0.865650      0.068694      2.547181
Ti       1.97595      9.70512     11.26273         0.087704     -0.206955      0.115377
Ti      13.71564      9.69466     11.23191        -0.780554      0.741406      0.888698
Ti       5.83677      1.83223      2.43236         0.456350      0.590903     -1.176841
Ti       5.82216      1.88831     15.59120        -0.488809      0.196231      2.336554
Ti       5.84719     13.55112      2.25401         0.003665     -0.095784      1.593897
Ti       5.90196     13.61598     15.63747        -0.627308      0.227493      0.729986
Ti       5.77620      1.88237      6.82294         0.145270      0.973004      0.778734
Ti       5.83555     13.61903      6.83271        -0.245442      0.087417      1.042502
Ti       5.89612      1.96211     11.19828        -0.561799      0.714067      1.127899
Ti       5.78641     13.68341     11.19737         0.997957      0.141170     -1.021554
Ti       5.87211      5.73852      2.35330         0.026432      0.250287      1.269679
Ti       5.87210      5.77151     15.60801         0.393671      0.928736     -1.596062
Ti       5.77692      5.81319      6.67779         0.836808      0.101614      0.080408
Ti       5.91779      5.83491     11.09115        -0.712552      0.304262      1.898639
Ti       5.76088      9.63704      2.37421         1.675398      0.303722      0.766083
Ti       5.82704      9.75207     15.61173         0.199575     -0.571997     -0.843011
Ti       5.76832      9.75567      6.81829         0.822110     -0.159950      1.143278
Ti       5.83026      9.77954     11.22060        -0.271565     -1.100915      0.754809
Ti       9.74189      1.94796      2.41348        -0.412172     -0.814308      0.949595
Ti       9.73406      1.86119     15.65969         0.016427      0.908148      0.025334
Ti       9.66975     13.63084      2.33233         0.618335      0.008993      0.044343
Ti       9.82773     13.69568     15.55558        -1.630770     -0.757038      1.603007
Ti       9.68791      1.98902      6.77488         0.024852     -0.138306      0.882390
Ti       9.72839     13.70706      6.77477        -0.016864     -0.131447      2.535529
Ti       9.73208      1.90751     11.10004         0.990549      0.127998      1.978138
Ti       9.70244     13.61378     11.11300         0.679687      0.957936      0.877039
Ti       9.76272      5.79480      2.34559        -0.217790     -0.119361      0.316999
Ti       9.78144      5.74923     15.59262        -0.645520      0.488404      2.179855
Ti       9.68950      5.84321      6.82947        -0.285974     -0.090724      0.296870
Ti       9.70691      5.74169     11.15783         0.600595      0.436480      0.595045
Ti       9.69861      9.67459      2.33918        -0.194908      0.281511      0.550832
Ti       9.76349      9.67810     15.61449        -0.562867      0.439769      0.122658
Ti       9.71308      9.80501      6.83373         0.485844     -0.916143      1.739163
Ti       9.71809      9.67752     11.25138         0.619846     -0.111441      2.091902
O       2.08174      1.92218      0.72315         0.073866      0.004507     -0.826589
O       2.02078      2.04793     13.94055         0.031297      0.068680     -3.192074
O       2.00694     13.65711      0.53981        -0.193711     -0.032710     -0.906205
O       2.23653     13.58596     13.85693        -0.334188     -0.265127     -1.722024
O      13.72367      1.91230      0.62216        -0.235230      0.460731     -2.721580
O      13.77758      1.85592     14.04088        -0.237658      0.121266     -1.309609
O      13.74906     13.55454      0.66680        -0.250638     -0.260027     -2.168774
O      13.75360     13.67333     13.82228        -0.202666      0.106917     -1.202049
O       1.83290      1.86208      5.04727         0.398657      0.239375     -1.388701
O       1.96378     13.83320      5.14439        -0.358642     -0.408335     -1.411120
O      13.65980      2.05596      5.05995        -0.267381     -0.362947     -1.347022
O      13.57179     13.78905      5.02985         0.221316     -0.375403     -1.540961
O       1.98011      1.88436      9.40794        -0.122551      0.021476      0.016824
O       2.00651     13.56400      9.39178        -0.173210      0.470451     -0.421621
O      13.57816      1.92351      9.51147         0.229945      0.098330     -1.887923
O      13.54796     13.62726      9.40779         0.217214      0.019529     -1.036820
O       2.01213      5.75168      0.55541         0.010285      0.414055     -2.435715
O       1.97231      5.65554     13.76465        -0.084975      0.524770      0.216826
O      13.49145      5.76244      0.62593         0.061697      0.060127     -2.999788
O      13.64860      5.77324     13.87072         0.046884     -0.084828     -0.259754
O       1.78861      5.81236      5.09888         0.035361      0.033317     -1.366185
O      13.73588      5.84772      5.12211         0.239157     -0.095057     -1.517215
O       2.06110      5.75665      9.38253        -0.244785      0.239023      0.373235
O      13.76994      5.85763      9.46874        -0.267615     -0.096323     -0.457916
O       1.88752      9.67064      0.65090         0.184011     -0.238860      0.100386
O       1.90614      9.83761     13.81490         0.075296     -0.201596     -1.211995
O      13.69982      9.86244      0.84849         0.088392     -0.441772     -2.682197
O      13.72766      9.83977     13.96794        -0.279029     -0.320945     -1.778280
O       2.26763      9.92229      5.17461        -0.373166     -0.384297     -2.180333
O      13.60830      9.68533      5.09090         0.271061      0.135031     -3.258373
O       1.91491      9.64874      9.56864         0.196707     -0.224511     -1.746510
O      13.67394      9.70998      9.54113         0.033366      0.040473     -1.488859
O       5.84454      1.94976      0.70464        -0.087464     -0.342732     -0.981213
O       5.77362      1.89951     13.90451         0.254043      0.281749     -2.394978
O       5.83825     13.51405      0.54670         0.127530      0.088471     -1.162301
O       5.80859     13.63663     13.90390        -0.111776     -0.073352     -1.206302
O       5.88602      2.02989      5.12422         0.210567     -0.552575     -2.199594
O       5.89997     13.66277      5.14923        -0.039535      0.135889     -2.582475
O       5.94119      1.89617      9.51251        -0.290606     -0.173080     -2.588401
O       5.90088     13.64521      9.44631        -0.426690      0.274548      0.003275
O       5.81570      5.72447      0.63426        -0.064225      0.529821     -2.265801
O       5.96285      5.78634     13.80610        -0.230173     -0.207546      0.739949
O       5.80246      5.86878      4.91137        -0.112247     -0.247717     -0.348871
O       5.93452      5.91356      9.37307        -0.028326     -0.269321     -1.287069
O       5.81572      9.58036      0.65036        -0.054295      0.156142     -1.419507
O       5.82439      9.63574     13.86026         0.163827      0.354101     -0.195567
O       5.73485      9.73163      5.11271        -0.205573      0.346561     -1.331902
O       5.88967      9.61684      9.53131        -0.073819      0.514137     -1.721744
O       9.82176      1.85709      0.71174        -0.265084      0.301582     -1.886723
O       9.80325      1.83466     13.92505        -0.211651      0.166007     -0.616568
O       9.70073     13.66483      0.58647         0.050683      0.017785     -0.261007
O       9.84175     13.73455     13.85232        -0.472965     -0.107816     -1.581370
O       9.71362      2.10203      5.05306        -0.254139     -0.268514     -1.309151
O       9.72708     13.64809      5.11262         0.121654      0.045931     -2.966612
O       9.79632      1.88978      9.42651         0.165850      0.053690     -2.229263
O       9.79704     13.73696      9.39409        -0.287744     -0.617166     -0.530824
O       9.77232      5.85565      0.58598         0.250075      0.029169     -0.451068
O       9.73997      5.67335     13.90898        -0.088061     -0.292996     -2.406320
O       9.78607      5.85449      5.11431        -0.266602      0.033118     -0.971350
O       9.65386      5.79562      9.46030         0.084583      0.100755     -1.746022
O       9.64544      9.56141      0.61591         0.336469     -0.080519     -1.026705
O       9.87548      9.68867     13.88905        -0.070768      0.358116     -1.128397
O       9.62241      9.77092      5.17672        -0.005122     -0.231063     -3.429220
O       9.86693      9.57636      9.60015        -0.351002      0.388097     -2.625697
O       3.93493      1.88373      2.87243         0.065206      0.034357      0.613235
O       3.87884      1.93816     16.03197         0.610430      0.478256      0.204263
O       3.86261     13.64161      2.69655         0.629920     -0.201648      0.175461
O       3.87918     13.45503     16.16677         0.923752      1.198302     -0.714722
O       0.00859      1.92407      2.77055        -0.167385      0.458595      0.306415
O       0.09292      1.83622     16.10912        -1.002698      0.136484      0.255057
O       0.04960     13.63281      2.75873        -0.967819     -0.095675      0.406664
O       0.02502     13.64261     15.95352        -0.048589      0.177472     -0.293832
O       3.88549      1.90669      6.98260        -0.359952     -0.563281      1.028254
O       3.86477     13.60450      7.12780        -0.241135      0.573937      0.953825
O      15.57072      1.83464      7.00422         0.150243      0.094716      1.223000
O      15.53912     13.63986      7.25567         0.036195     -0.142061     -0.260504
O       3.97333      2.00890     11.61458        -0.738161     -0.404573      0.351513
O       3.85475     13.67675     11.54786         0.585416     -0.136555      0.087127
O       0.11422      1.83992     11.67727        -1.189414      0.383350     -0.199713
O      15.54640     13.67116     11.60896         1.393216      0.007370     -0.130953
O       3.94030      5.90056      2.62479        -0.677524     -0.423188      0.694683
O       3.83580      5.82929     15.95634         0.618006      0.109398      0.168202
O       0.07620      5.76519      2.48935        -0.783735      0.344674      0.798496
O      15.56521      5.85310     15.98836         0.240149      0.029591      0.313406
O       3.92489      5.83418      7.10282        -0.702898      0.100207      0.356456
O      15.56650      5.89099      7.29828         0.638588     -0.542285      0.230550
O       4.00156      5.77471     11.46870        -0.448669      0.587630      0.454021
O       0.00503      5.81208     11.48275         0.291943      0.412995      0.772569
O       3.96858      9.79584      2.85528        -1.734611      0.114572     -0.137612
O       3.87334      9.77507     15.86888         0.336065     -0.412231      0.654715
O       0.05305      9.79584      2.92412         0.157900     -0.606961      0.151490
O      15.58492      9.73256     15.98984         0.337595     -0.354478      0.539489
O       3.86183      9.66904      7.41829         0.896790      0.641536     -0.197002
O       0.01645      9.74547      7.17225        -0.071416      0.286810      0.058433
O       3.91215      9.60692     11.57635         0.153896      0.348100      0.563218
O       0.05281      9.62836     11.58471        -1.169408      0.192881      0.715521
O       7.73765      1.91878      2.77396         0.210264     -0.105079      0.795144
O       7.80451      1.89732     15.87494        -0.350834      0.065118      0.671433
O       7.84095     13.64429      2.78789        -0.985758     -0.237740      0.242345
O       7.72737     13.71041     15.97273         0.839090     -0.091402      0.165017
O       7.80653      2.00226      7.20330        -0.527886     -0.636503      0.331429
O       7.79092     13.63586      7.13701         0.298408     -0.152737      0.841240
O       7.87268      1.96046     11.48535        -0.417222     -0.305720      1.031144
O       7.76441     13.64356     11.53655         0.273934     -0.004137      0.468874
O       7.78511      5.92172      2.56393         0.098933     -0.001924      0.769174
O       7.75024      5.73378     15.98334         0.663756      0.496779      0.443385
O       7.73766      5.71736      7.08660        -0.194667      0.237078      0.449713
O       7.82749      5.81775     11.59504         0.059337     -0.215774      0.378608
O       7.83124      9.67503      2.76829        -0.468992     -0.362478      0.508630
O       7.77440      9.72833     15.97044         0.093453     -0.227913      0.377233
O       7.70114      9.82905      7.17055         0.121035      0.175146      0.797803
O       7.78672      9.67715     11.62005         0.664858      0.713154      0.284187
O      11.61588      1.89942      2.72879         1.250088      0.423065      0.535294
O      11.68331      1.82560     16.05202         0.367647      0.788059      0.425297
O      11.68700     13.63508      2.73289         0.206571      0.059149      0.319321
O      11.60373     13.57958     15.93674         2.045567      0.145500      0.441667
O      11.69182      1.98382      7.08581        -0.152445      0.031471      0.712644
O      11.63974     13.73603      7.18059         1.230349     -0.661536      0.206730
O      11.69742      1.84965     11.70650         0.710325      0.895425     -0.291644
O      11.72226     13.67431     11.49388        -0.873518     -0.336876      0.539598
O      11.71476      5.80223      2.76228        -0.193246      0.001199      0.163267
O      11.65494      5.78275     15.94741         0.804212     -0.056317      0.509256
O      11.75388      5.96647      7.13336        -0.596003     -0.839295      0.863276
O      11.70613      5.77234     11.43364         0.534299     -0.226739      0.942627
O      11.67456      9.64250      2.77335        -0.179549      0.054903      0.460953
O      11.70049      9.73721     16.08015         0.137045      0.116313      0.297162
O      11.65864      9.68871      7.04335         0.297617     -0.257425      1.121871
O      11.76737      9.75732     11.59051        -0.361649      0.108504      0.836797
O       2.03123      3.90475      2.76156         0.138778     -0.200977      0.457184
O       1.87769      3.93628     15.98291        -0.010376     -0.224262      0.401080
O       1.97920     15.58361      2.71820        -0.068419     -0.337499      0.604158
O       2.09560     15.55478     15.88595        -0.067450     -0.501717      0.311094
O      13.57820      3.90356      2.76097         0.446349     -0.590965      0.063817
O      13.75834      3.84214     16.05140        -0.636720      0.534954      0.265188
O      13.71034      0.02228      2.52106        -0.301134     -0.801252      1.005728
O      13.62343     15.54551     16.14259        -0.101786     -0.297513     -0.332241
O       1.98300      3.86703      7.16445        -0.450280      0.147289      0.305968
O       1.94376     15.57198      7.15655        -0.040718      0.526095      0.996372
O      13.73231      3.85051      7.13803        -0.208659      0.444787      0.903253
O      13.64595     15.56428      7.20040        -0.228519      0.113826      0.028708
O       2.02773      3.94241     11.47153        -0.495909     -1.067289      0.619766
O       2.00410     15.58904     11.64935         0.116708     -0.440829     -0.240819
O      13.82003      3.83553     11.63733        -0.969894     -0.027930      0.006808
O      13.58911      0.00263     11.64151         0.821407      0.113425      0.081524
O       2.01907      7.77994      2.81965        -0.375030      0.366462     -0.015602
O       1.90666      7.78856     15.85706        -0.040751     -0.270489      0.361908
O      13.63692      7.71569      2.76308         0.594594     -0.029726      0.312954
O      13.61935      7.73311     15.98475        -0.005111      0.204452      0.498430
O       1.95728      7.78423      7.23567        -0.138775     -0.253894     -0.129216
O      13.69856      7.80409      7.18795         0.093931      0.082338      0.497012
O       1.94794      7.71602     11.72535         0.326641     -0.162199      0.043782
O      13.55342      7.75828     11.64302         0.759951      0.426581      0.096519
O       1.91102     11.72898      2.69419         0.264377     -0.754859      0.550913
O       2.02894     11.67324     16.06801        -0.873285     -0.344440     -0.361964
O      13.58521     11.61544      2.83772         0.512178      0.805375      0.676890
O      13.75620     11.69548     15.93846        -0.829891      0.473239      0.496202
O       1.97250     11.67725      7.26008        -0.244770      0.500027      0.478542
O      13.53994     11.69078      7.22458         0.387184      0.221744     -0.112893
O       2.03324     11.60088     11.41084        -0.098875      1.999328      0.893161
O      13.68387     11.79527     11.61658         0.002865     -1.386902      0.215718
O       5.83527      3.84598      2.58951        -0.197424      0.151657      1.364238
O       5.87243      3.92944     16.04678        -0.332001     -1.121552      0.014295
O       5.89577     15.47045      2.60228        -0.150365      0.272609      0.865363
O       5.82159      0.02784     16.01267        -0.282076     -0.725899      0.242364
O       5.72325      3.85041      7.09217         0.445049      0.318792      0.844716
O       5.88368     15.53498      7.25217        -0.228070      0.984982      0.319539
O       5.91455      3.88227     11.42214         0.350591      0.410001      0.698776
O       5.89766      0.05417     11.53984        -0.160955     -1.201038      0.673060
O       5.71722      7.79799      2.75228         0.500573     -0.178195      0.400760
O       5.87819      7.73817     16.00426        -0.450901      0.166060      0.517891
O       5.92838      7.79031      7.05754        -0.482317      0.027842      0.593041
O       5.90903      7.82696     11.53666         0.016408     -1.042433      0.731162
O       5.95583     11.67438      2.85191        -0.497187      0.032455     -0.286084
O       5.92565     11.68378     15.98759        -0.385493     -0.347128      0.031505
O       5.75386     11.77712      7.24101         0.251683     -1.585084      0.485809
O       5.81094     11.74816     11.49361         0.079219     -0.107979      0.771799
O       9.63005      3.90041      2.78295         0.377084     -0.073648      0.021817
O       9.67448      3.89094     16.11590         0.591068     -0.869367     -0.015120
O       9.69495     15.57036      2.77106         0.196369     -0.103043      0.622820
O       9.74974      0.00000     16.14934        -0.179988     -0.468281     -0.315055
O       9.65777      3.88395      7.23412         1.020580      0.288062      0.532259
O       9.83560      0.00045      7.12801        -0.672243      0.779902      0.202363
O       9.85080      3.82854     11.43316        -0.273459      0.364095      0.964035
O       9.80023     15.56522     11.49943        -0.537904     -0.307936      0.691752
O       9.76299      7.65643      2.92628        -0.017232      1.018095     -0.295068
O       9.72801      7.81568     15.85884         0.124683     -1.240454      0.891195
O       9.60780      7.74835      7.27811         0.263621      0.362596      0.213454
O       9.83999      7.70070     11.65519        -0.392575      0.638501      0.180960
O       9.69304     11.61464      2.60840         0.430663      0.003754      0.681822
O       9.64985     11.69212     15.99480         0.418395      0.194791      0.107103
O       9.78974     11.66084      7.17887        -0.226002      0.947787      0.926089
O       9.78543     11.72402     11.64847        -0.361798     -0.355100     -0.109214
