  # total energy = -7883.32587684 
CRSYTAL
PRIMVEC
    15.3600000000000000    0.0000000000000000    0.0000000000000000
     0.0000000000000000   15.3600000000000000    0.0000000000000000
     0.0000000000000000    0.0000000000000000    17.440000000000000
PRESSURE
1.36838 1.37932 -4.0147 -0.194126 -0.284389 0.019026
PRIMCOORD
320 1
Pb       3.86381      3.76555      4.28042         0.097911      0.082795      0.620277
Pb       3.73757      3.80903     17.42619         0.567906      0.126113     -0.202640
Pb       3.80352     15.28670      4.30794         0.508658     -0.135998      0.554395
Pb       3.75246     15.25727     17.34456         0.269351      0.069781      0.396586
Pb       0.03610      3.77817      4.25648        -0.217754      0.289553      0.663068
Pb      15.31237      3.80807     17.33949         0.225910     -0.100623      0.404333
Pb      15.35988      0.00808      4.32765         0.132057     -0.502997      0.107198
Pb       0.08460     15.35073     17.36093        -0.118971     -0.504239      0.398114
Pb       3.81862      3.77991      8.71834         0.448261      0.462418      0.400995
Pb       3.83580      0.02509      8.49966         0.079926     -0.302236      1.211145
Pb       0.10221      3.86866      8.72191        -0.349903      0.127469      0.453784
Pb      15.29530     15.30354      8.70013         0.112346      0.258637      0.077506
Pb       3.82467      3.84964     13.07782         0.088645     -0.192116     -0.373188
Pb       3.86006      0.10510     13.01595        -0.038516     -0.273498      0.732940
Pb       0.03203      3.84379     13.02065        -0.077135     -0.201501     -0.155544
Pb      15.32034     15.28927     13.08966        -0.095616     -0.096090      0.038465
Pb       3.80305      7.64769      4.35145        -0.109274      0.424822      0.424138
Pb       3.88210      7.62474     17.33011        -0.312237      0.170868      0.672449
Pb      15.27478      7.73801      4.29959         0.465455     -0.386433      0.507757
Pb      15.32474      7.54598      0.00180         0.416000      0.503642      0.050221
Pb       3.72271      7.73582      8.60054         0.555061      0.101788      0.850626
Pb      15.35541      7.71424      8.62837        -0.082638     -0.026635      0.653414
Pb       3.87236      7.65007     12.96201        -0.192496     -0.062113      0.829367
Pb      15.27627      7.61150     13.02604        -0.048024      0.471941     -0.001086
Pb       3.93589     11.49931      4.37097        -0.661175     -0.084331      0.212369
Pb       3.70289     11.63281     17.39078         0.180386     -0.633319      0.322746
Pb      15.23528     11.40953      4.42154         0.535490      0.690239     -0.394085
Pb      15.33844     11.52307     17.40713         0.058276     -0.170065     -0.153933
Pb       3.90806     11.45878      8.63792        -0.294453     -0.027501      0.127145
Pb      15.31415     11.58110      8.70172         0.156722     -0.314994     -0.085234
Pb       3.79248     11.47626     13.04554         0.110278      0.137178      0.243514
Pb       0.00517     11.51662     12.96757        -0.287149     -0.186386      0.395215
Pb       7.64341      3.83555      4.26082         0.111721     -0.369738      0.193409
Pb       7.56677      3.76038      0.06102        -0.156249      0.116002     -0.505008
Pb       7.64299     15.23311      4.40336         0.080150      0.109767     -0.131168
Pb       7.76712     15.33853     17.42712        -0.425568     -0.031222     -0.042376
Pb       7.66218      3.87529      8.61149        -0.147508     -0.313873      0.300738
Pb       7.64664      0.07871      8.72310         0.026944      0.076917     -0.267751
Pb       7.69938      3.83236     12.93017        -0.008666     -0.030527      1.030960
Pb       7.60964     15.34463     13.03271        -0.110414      0.282555      0.624117
Pb       7.74817      7.68885      4.36978        -0.007495      0.161662      0.073850
Pb       7.57927      7.75176     17.36513         0.013667     -0.687541      0.544171
Pb       7.77347      7.54918      8.69273        -0.825862      0.668700      0.609657
Pb       7.74610      7.73070     13.06677        -0.478401     -0.233437      0.270335
Pb       7.65006     11.50807      4.33141         0.007109     -0.391592      0.548600
Pb       7.66281     11.42471     17.38284         0.354974      0.274529      0.113332
Pb       7.63459     11.59364      8.65268         0.220643     -0.520606      0.578723
Pb       7.58309     11.45163     12.96465         0.238043      0.005778      0.408753
Pb      11.45077      3.89166      4.27756         0.144570     -0.153741     -0.000001
Pb      11.54116      3.83378     17.41839        -0.096260     -0.208719      0.465717
Pb      11.56170     15.27546      4.43332        -0.243020      0.303830     -0.479561
Pb      11.46216     15.34415      0.09418        -0.086528     -0.188112     -0.440571
Pb      11.46690      3.72615      8.65561        -0.074988      0.827814      0.428017
Pb      11.51026      0.09970      8.72009         0.064111     -0.459285     -0.130498
Pb      11.54117      3.78600     12.98837         0.102478      0.325060      0.225457
Pb      11.54539      0.01125     13.05651         0.170409     -0.446295     -0.024252
Pb      11.49039      7.59909      4.35855        -0.530636      0.464020     -0.438685
Pb      11.51241      7.74162     17.35994        -0.093840     -0.366231      0.629475
Pb      11.53332      7.70616      8.65547         0.072493     -0.381995      0.266005
Pb      11.52326      7.59128     13.13624         0.009179      0.146893     -0.117765
Pb      11.49699     11.56839      4.22659        -0.038193     -0.604111      0.508949
Pb      11.48027     11.47349     17.40501        -0.288136      0.170506     -0.039629
Pb      11.56976     11.50776      8.57012        -0.674627     -0.015883      0.882346
Pb      11.55447     11.53141     13.08832        -0.190843      0.130472      0.288094
Ti       1.93250      1.89479      2.34939         0.278465     -0.904008     -1.768951
Ti       1.93014      1.89771     15.41420         0.031219     -0.630750     -1.486860
Ti       1.90905     13.40815      2.41853        -0.178920     -1.480350     -1.432903
Ti       1.91716     13.37244     15.38741        -0.341950      0.133450     -0.661490
Ti      13.40306      1.88041      2.39560        -0.076011      0.122446     -1.209745
Ti      13.46306      1.84626     15.39894         0.062804      0.161803     -1.236601
Ti      13.43195     13.45140      2.34815         0.872286     -0.776030     -1.484409
Ti      13.35708     13.46993     15.51445         0.409873     -1.511715     -1.637290
Ti       1.89821      1.96917      6.81708        -0.045942     -0.530295     -0.418987
Ti       1.85903     13.49303      6.76236         0.784453     -0.710695     -1.731152
Ti      13.43243      1.94485      6.72944         0.238262     -0.758756     -2.187067
Ti      13.40602     13.43237      6.67139         0.456634     -0.193788     -0.407429
Ti       1.89397      1.79102     11.06788         0.402742      1.640977     -1.288053
Ti       1.92777     13.45841     11.02219        -0.653548     -0.610004      0.254964
Ti      13.48188      1.89070     11.03136         0.136652     -0.027702     -0.240407
Ti      13.39958     13.41229     10.96937        -0.108948      0.480539     -0.484785
Ti       1.91897      5.74654      2.39223        -0.193175      0.338475     -1.575385
Ti       1.97577      5.73173     15.34938        -0.495548     -0.360771     -0.432038
Ti      13.46836      5.77541      2.41973        -1.058764     -0.110012     -1.521181
Ti      13.44442      5.66946     15.49577        -1.084678      0.507497     -1.458631
Ti       1.89142      5.77536      6.76532         0.043325      0.549021     -1.726779
Ti      13.43388      5.67783      6.66221        -0.123189      0.825438     -0.385730
Ti       1.87753      5.75526     11.07542         0.419919     -0.483482     -0.557909
Ti      13.37700      5.77710     11.01876         0.620586     -0.435617     -0.702955
Ti       1.82036      9.53667      2.38363         1.335083      1.023233     -1.389848
Ti       1.86608      9.54060     15.33828        -0.052469      0.122496     -0.540814
Ti      13.38419      9.62318      2.32977        -0.864173      0.300223     -2.032185
Ti      13.40018      9.55514     15.50548         0.142138      0.648460     -1.507079
Ti       1.81006      9.65560      6.64257         1.315397     -0.152034     -0.665250
Ti      13.39753      9.53546      6.71187        -0.079154      0.316487     -0.975252
Ti       1.88514      9.56392     11.05197        -0.748519     -0.596397     -0.642179
Ti      13.34237      9.61197     11.05084         0.934390     -0.467262     -0.527167
Ti       5.75386      1.93350      2.24550         0.641045     -1.096069     -0.135636
Ti       5.73201      1.84858     15.47602         0.556532      0.332939      1.000413
Ti       5.77423     13.39950      2.33527        -0.341137      0.155153     -0.410627
Ti       5.79589     13.43464     15.45559        -0.407066      0.119888     -2.274255
Ti       5.75554      1.88574      6.66101         0.651415      0.213153      0.186234
Ti       5.73147     13.40059      6.75869         0.370615     -0.321371     -1.596774
Ti       5.77967      1.96611     10.99667        -0.270327     -0.055006     -1.048343
Ti       5.63103     13.45595     11.06766         1.110402      0.105971     -1.348592
Ti       5.72677      5.82249      2.43547         0.070978     -0.633255     -2.130789
Ti       5.71927      5.72027     15.35063         1.080795     -0.260699     -0.543425
Ti       5.69033      5.71981      6.69446         0.221842      0.380343     -0.693779
Ti       5.76512      5.78164     11.06692        -0.142667     -0.223199     -1.594729
Ti       5.65776      9.56829      2.36958         0.098296      0.476565     -0.644290
Ti       5.65806      9.63697     15.45113         0.255840     -0.548862     -1.745960
Ti       5.72321      9.54735      6.69503        -0.164782     -0.130631     -1.192675
Ti       5.66232      9.53980     11.03654         1.130760      0.308231     -0.979365
Ti       9.60685      1.80015      2.31974        -0.592947      0.421144     -0.694931
Ti       9.64293      1.93067     15.47863        -1.844464     -0.649707     -0.956851
Ti       9.58339     13.36282      2.37700         0.449585      0.035558     -1.737257
Ti       9.57183     13.42001     15.38773        -0.303859     -0.601494      0.461862
Ti       9.58765      1.94307      6.57769        -0.928019     -0.116660      0.172535
Ti       9.60572     13.49897      6.75496        -0.748834     -1.081255     -1.468698
Ti       9.64341      1.86930     11.01457        -0.694828      0.644046     -1.501982
Ti       9.52650     13.44486     11.05689         0.552885     -0.971906     -1.148548
Ti       9.53951      5.68740      2.28538         0.498423      0.915574      1.666346
Ti       9.53253      5.68572     15.54728        -0.220573     -0.044572     -2.186655
Ti       9.58776      5.78785      6.64745         0.565370     -0.532421     -1.823338
Ti       9.54297      5.70771     11.09833         0.464633      0.941771      0.048837
Ti       9.51693      9.58182      2.32982         0.225531     -0.788991     -1.327494
Ti       9.53309      9.50237     15.40610        -0.182640      1.255544     -0.853017
Ti       9.53689      9.58262      6.80413        -0.508432      0.303164     -1.607254
Ti       9.60296      9.57319     11.11946        -0.672537      0.118131     -0.877887
O       1.95830      1.70820      0.50483        -0.185323      0.753538      1.665768
O       1.99458      1.90668     13.60442        -0.439365     -0.033010      0.453609
O       1.94145     13.41672      0.49822        -0.044181     -0.234605      1.579473
O       1.95549     13.35767     13.61313        -0.194992     -0.096040     -0.047607
O      13.49449      1.90135      0.59191        -0.215141     -0.108132      0.705321
O      13.49941      1.83725     13.54940        -0.337400      0.067740      1.422780
O      13.44590     13.37300      0.52412        -0.093663      0.192293      0.460039
O      13.23885     13.46975     13.65258         0.360509      0.085957      1.244271
O       1.93064      2.00112      5.07742         0.120201     -0.113736     -1.068809
O       1.87096     13.47709      4.97882         0.079338      0.202444      0.089116
O      13.34745      1.84585      4.84364         0.152650     -0.007937      1.513204
O      13.50922     13.38048      4.84222        -0.404230      0.238030      1.033107
O       1.84364      1.85592      9.20086         0.128744      0.087849      1.175663
O       1.88469     13.54594      9.27229        -0.210187     -0.301777     -0.243478
O      13.41627      1.85639      9.23051         0.024463     -0.021801     -0.261322
O      13.39598     13.50560      9.13864         0.239936     -0.241545      0.968937
O       1.92221      5.69225      0.57133        -0.174202     -0.072858      1.012230
O       2.02868      5.61526     13.53275        -0.537772      0.329161      1.173915
O      13.39645      5.81759      0.58414         0.311037     -0.456290      0.879453
O      13.44427      5.62041     13.68891        -0.159441      0.025742      0.431482
O       1.83519      5.75297      4.92510         0.312916     -0.127976      1.149546
O      13.51586      5.70874      4.86176        -0.361649      0.140162      0.495075
O       1.88209      5.81621      9.28466        -0.201983     -0.238465      0.127542
O      13.41476      5.75734      9.23664        -0.143896      0.123711      0.455801
O       1.78111      9.57228      0.59852         0.337307      0.012068      0.431747
O       1.89402      9.56551     13.50013        -0.095145     -0.022803      1.617955
O      13.19031      9.59457      0.42239         0.747253     -0.189081      1.615270
O      13.35900      9.65477     13.69040         0.137591     -0.418775      0.649993
O       1.93169      9.48381      4.84947        -0.750343      0.372138      0.963382
O      13.44676      9.70052      4.92740         0.041610     -0.154023     -0.061992
O       1.85611      9.42726      9.22168        -0.109695      0.693281      1.256271
O      13.37330      9.49260      9.23713        -0.035721      0.208006      0.704991
O       5.66376      1.82799      0.44712        -0.008031      0.487269      1.428124
O       5.73598      1.84284     13.73860         0.046007     -0.044405     -1.078305
O       5.64563     13.31016      0.57343         0.327356      0.179817      0.243441
O       5.71756     13.47378     13.58701         0.003580      0.110366      0.869565
O       5.79037      1.88419      4.91657         0.056048      0.022525     -0.243742
O       5.74793     13.30333      4.91651         0.287233      0.435469      1.004215
O       5.80882      1.97182      9.17640        -0.116286     -0.147189      0.984771
O       5.71798     13.42604      9.22040         0.072852      0.207555      1.069991
O       5.62650      5.79920      0.58053         0.267574     -0.099054      1.708228
O       5.79183      5.64683     13.54897        -0.380103      0.155552      0.929006
O       5.69377      5.71247      4.85896        -0.060677     -0.061913      1.144384
O       5.79313      5.68435      9.22954         0.049075      0.204415      0.849548
O       5.68552      9.59316      0.55793         0.097005     -0.279561      0.612040
O       5.70745      9.50577     13.63048        -0.256684      0.691553      0.854837
O       5.68660      9.68264      4.84852         0.338650     -0.438992      1.185017
O       5.62126      9.57981      9.23027         0.104249     -0.084862      1.142630
O       9.46223      1.78447      0.48511         0.909160      0.001567      1.019068
O       9.42572      1.93169     13.68211         0.784902      0.122799      0.307612
O       9.50468     13.31230      0.56568         0.353884      0.413965      0.740517
O       9.67345     13.30622     13.63832        -0.081292      0.609242     -0.449959
O       9.62083      1.82874      4.80309         0.090998      0.233551      0.466858
O       9.51539     13.32074      4.91534         0.736883      0.328887      0.830656
O       9.51809      1.96685      9.15117         0.640943     -0.427016      1.686029
O       9.54272     13.40973      9.20452         0.085832      0.521620      1.626614
O       9.45446      5.73233      0.58293         0.227745     -0.176937     -1.642153
O       9.49836      5.69158     13.68397         0.475443     -0.242785      0.945181
O       9.69028      5.84595      4.77684        -0.359188     -0.209261      1.988780
O       9.64421      5.74334      9.36232        -0.219507      0.006292     -0.974625
O       9.39470      9.56718      0.47760         0.622142      0.003429      1.032553
O       9.45957      9.65221     13.58690         0.359763     -0.554024      0.964794
O       9.40406      9.38654      4.97048         0.655508      0.820101      1.508767
O       9.56820      9.62035      9.32843         0.295074     -0.480101      0.010886
O       3.90553      1.82869      2.82835        -0.674443      0.232861     -0.527199
O       3.77485      1.86355     15.73919         0.144829     -0.039959      0.502999
O       3.87963     13.50023      2.78311        -0.017508     -0.161947     -0.189411
O       3.83248     13.36061     15.71612        -0.336862     -0.089012      0.542755
O       0.04501      1.93685      2.72080         0.195288     -0.393633      0.082086
O      15.34576      1.79697     15.77170        -0.150347      0.339523      0.146191
O       0.01757     13.47243      2.73425         0.294503     -0.337572      0.105213
O      15.35032     13.33564     15.77172        -0.258264      0.158876      0.069612
O       3.86576      1.93171      7.13923        -0.399636     -0.034019     -0.280272
O       3.84344     13.44655      7.04495        -0.213098      0.024242      0.283836
O      15.35044      2.00251      7.01170        -0.960862     -0.191425      0.381976
O       0.00713     13.43405      7.02987        -1.537855      0.228191      0.657098
O       3.84188      1.99555     11.46620        -0.513612     -0.166283     -0.381637
O       3.81142     13.47234     11.36865        -0.815555     -0.242633      0.304355
O       0.05410      1.83399     11.49619        -0.702143      0.182960     -0.181216
O      15.33554     13.45380     11.46601         0.054284     -0.305228     -0.258419
O       3.80715      5.85317      2.73794        -0.173442     -0.593097      0.220803
O       3.80286      5.61967     15.84753        -0.552354      0.386869     -0.468460
O      15.32131      5.73410      2.74376         0.387570     -0.243673      0.003908
O      15.27252      5.75417     15.87017         1.299347     -0.389524     -0.188123
O       3.82237      5.82573      7.27833        -0.092994     -0.963924     -1.162159
O      15.32999      5.79893      7.16451        -0.070229     -0.567074     -0.304470
O       3.91314      5.79378     11.43100        -1.526159     -0.504007     -0.071301
O      15.28589      5.73636     11.45286         0.173333     -0.105604      0.124024
O       3.76504      9.49261      2.78093         0.907313     -0.100835     -0.225454
O       3.76386      9.58816     15.82121         0.017983     -0.252541     -0.247283
O      15.35867      9.73002      2.67018        -1.618309     -0.373712      0.560052
O      15.33497      9.49390     15.85943        -0.066939     -0.081067     -0.331631
O       3.79222      9.70057      6.96937        -0.527524     -0.384456      0.430374
O      15.29495      9.56663      7.04175         0.531532      0.136959      0.140870
O       3.78576      9.47430     11.43880        -0.330594      0.381311     -0.164883
O      15.27962      9.51485     11.51259         0.289551      0.118884     -0.335519
O       7.71045      1.95663      2.56747        -0.432969      0.106809      0.465366
O       7.60812      1.78856     15.85408         0.162255      0.456042      0.178721
O       7.78859     13.25264      2.77023        -1.958562      0.443886     -0.072048
O       7.65239     13.44002     15.75565         0.387092     -0.085625      0.175919
O       7.69478      1.92690      7.13260        -0.128259     -0.249998     -0.500627
O       7.70707     13.39083      7.01555        -0.651296      0.126755      0.473470
O       7.68133      1.78634     11.34537         0.027898      0.210497      0.172976
O       7.63543     13.54629     11.51375         0.216540     -0.279088     -0.740213
O       7.68853      5.57174      2.74594        -0.748802      0.747900     -0.142763
O       7.59926      5.75286     15.75044         0.067001     -0.283934      0.482654
O       7.69339      5.85389      7.07178        -0.605070     -0.346056     -0.327968
O       7.64356      5.86974     11.38683         0.669532     -0.554806      0.233607
O       7.68727      9.67090      2.70520        -1.295174     -0.018482      0.152824
O       7.62112      9.41297     15.80294        -0.382413      0.842110     -0.189630
O       7.59211      9.57527      7.17270         0.795349     -0.185101     -0.174023
O       7.65413      9.51735     11.52926        -0.883748      0.362316     -0.586001
O      11.51658      1.79700      2.61753         0.314577      0.017304      0.291491
O      11.50013      1.86929     15.74608         0.868032     -0.005246      0.281132
O      11.58034     13.36475      2.65577        -0.800280      0.505297      0.573995
O      11.44905     13.40578     15.92082         0.518069      0.269615     -0.061478
O      11.44739      1.96886      7.10642         0.210689     -0.441940     -0.254335
O      11.53531     13.48860      7.01915        -0.131710     -0.482281      0.026702
O      11.56821      1.93450     11.37946        -0.946004     -0.279157      0.052491
O      11.53274     13.38257     11.43640        -0.613699      0.147689     -0.268449
O      11.48273      5.86293      2.64377         0.655802     -0.145687      0.506029
O      11.51050      5.47749     15.82503        -0.659969      0.793363      0.057900
O      11.52707      5.74202      7.06151        -0.576392     -0.153748     -0.109688
O      11.54953      5.66011     11.46018        -0.795334      0.179488      0.431638
O      11.46442      9.52037      2.73319         0.620692      0.075052      0.092550
O      11.38385      9.48004     15.73709         0.646291      0.516858      0.236960
O      11.51984      9.57847      7.06772        -0.889294      0.215530      0.138194
O      11.50753      9.60249     11.52579        -0.051803      0.036382     -0.113104
O       1.96671      3.78164      2.69723         0.108407     -0.093014      0.070564
O       1.80987      3.76993     15.70759         0.040236      0.807253      0.531187
O       2.01041     15.28448      2.79330        -0.698158      1.452118      0.028237
O       1.91309     15.26927     15.74269        -0.163080      0.366810      0.105202
O      13.38338      3.84339      2.79574         0.039246     -0.112893     -0.392965
O      13.43624      3.72667     15.87791         0.339327     -0.162372     -0.021781
O      13.48891     15.28708      2.67491        -0.207100      1.283024      0.502490
O      13.50483     15.29553     15.80776        -0.679648      0.975088      0.201120
O       1.92981      3.90210      7.17292         0.026863     -0.334361      0.136000
O       1.86231      0.01095      7.09930         0.148355      0.583238      0.157215
O      13.32944      3.78839      7.02209         0.462912      0.480291      0.242812
O      13.37191     15.34722      7.08162         0.241431      0.376539     -0.202608
O       1.84932      3.81178     11.36932         0.105798     -0.050428      0.104032
O       1.82885     15.30311     11.46409         0.680841      0.324505      0.006670
O      13.41987      3.73900     11.30659         0.429381      1.008977      0.545893
O      13.46094     15.31534     11.35768        -0.287549      0.029598      0.335288
O       1.77770      7.63370      2.66981         0.036170     -0.265964      0.410904
O       1.88424      7.55618     15.86613         0.093222      0.451269     -0.732658
O      13.49936      7.80289      2.75004         0.063089     -1.414347      0.031436
O      13.27910      7.60769     15.73324         0.207687     -0.246542      0.313115
O       1.91009      7.69329      7.09045        -0.286394      0.208353     -0.273822
O      13.35437      7.65740      6.93965         0.290115     -0.406327      0.325046
O       1.81024      7.58826     11.48426         0.308552      0.783527      0.011480
O      13.35138      7.68012     11.52740         0.011354     -0.431124     -0.128628
O       1.97523     11.49590      2.80310        -0.027370      0.800458     -0.214312
O       1.91008     11.41069     15.75044        -0.321021      0.227849      0.040024
O      13.39897     11.50503      2.67197         0.224574     -0.274808      0.471299
O      13.38805     11.46837     15.74788        -0.233108      0.266399      0.583113
O       1.83014     11.56243      7.09598        -0.042778     -0.870892      0.157823
O      13.46513     11.49591      7.16812        -0.008900      0.597860     -0.450241
O       1.87015     11.43095     11.41474         0.223583      0.810599     -0.316234
O      13.50362     11.52612     11.31728        -0.284205     -0.294086      0.133900
O       5.76218      3.82373      2.72071        -0.573258     -0.347323     -0.107664
O       5.64985      3.81583     15.86426         0.357875     -0.232051     -0.011551
O       5.96621     15.32138      2.77384        -0.655424     -0.016939     -0.443653
O       5.74060     15.25603     15.94761        -0.419133      0.649357     -0.420850
O       5.72415      3.79453      6.93676         0.106631      1.020758      0.518221
O       5.82638     15.32828      7.04369        -0.225104     -0.015498      0.125437
O       5.81074      3.85219     11.42037        -0.019625     -0.530422     -0.063064
O       5.56197      0.08540     11.43880         1.026393     -0.734306     -0.315782
O       5.76557      7.66165      2.82875         0.350848      0.300622     -0.337569
O       5.67744      7.64654     15.73405        -0.446937     -0.322192      0.263776
O       5.65586      7.67167      7.04210         0.226960     -0.253988     -0.211599
O       5.69012      7.67972     11.54058         0.526447      0.166902     -0.624672
O       5.64156     11.49847      2.75704         0.449467     -0.288634     -0.239370
O       5.75931     11.51718     15.71709         0.050643     -0.670984      0.352924
O       5.71772     11.46766      7.12435         0.177591      0.696542      0.045019
O       5.60127     11.52094     11.34654         0.488214     -0.152696      0.322975
O       9.70347      3.77197      2.70238        -0.077688      0.027316     -0.133484
O       9.44009      3.76193     15.96362         0.388556      0.340984     -0.006747
O       9.63200     15.26935      2.73694        -0.134983      0.255139      0.067175
O       9.55753     15.33284     15.80886         0.377609     -0.156315      0.127886
O       9.42505      3.88959      6.93416         0.932582     -0.183206      0.020992
O       9.55697     15.35099      6.92276         0.259037      0.678313      0.478895
O       9.54513      3.81023     11.35754         0.073257     -0.593261      0.434186
O       9.69051      0.03481     11.42558        -0.172842     -0.928201     -0.089293
O       9.43885      7.69892      2.75869         0.410529     -0.660300     -0.298804
O       9.58236      7.58244     15.81327         0.054960     -0.033381      0.005423
O       9.58786      7.65072      7.13515         0.223289      0.173885      0.197892
O       9.56508      7.65520     11.42879         0.681178     -0.254640      0.465968
O       9.70612     11.45546      2.70414        -0.108029      0.120458      0.286214
O       9.48844     11.48574     15.78341         0.165346     -0.468044      0.115160
O       9.53206     11.48172      7.23549         0.656529     -0.143957     -0.780689
O       9.47586     11.46573     11.42809         0.238539      1.492718      0.019522
