  # total energy = -7866.06639616 
CRSYTAL
PRIMVEC
    15.010000000000000    0.0000000000000000    0.0000000000000000
     0.0000000000000000   15.010000000000000    0.0000000000000000
     0.0000000000000000    0.0000000000000000    16.400000000000000
PRESSURE
17.3008 17.4288 8.51473 0.108802 -0.224624 0.037265
PRIMCOORD
320 1
Pb       3.71993      3.57291      4.14737         0.171764      0.437804     -0.047064
Pb       3.65842      3.80709     16.33479         0.227475     -0.774671      0.011004
Pb       3.79599     14.91951      4.17992        -0.191502      0.347475     -0.485724
Pb       3.85203      0.06427     16.36233        -0.313034     -0.393246     -0.218370
Pb      14.98472      3.77869      4.22827         0.179122     -0.131967     -0.720756
Pb      14.87485      3.73191      0.05179         0.743632      0.027371     -0.134589
Pb      14.91292      0.00262      4.29514         0.086508      0.056291     -1.374920
Pb       0.08231      0.04054     16.30954        -0.760091     -0.012762      0.895759
Pb       3.68542      3.74804      8.12620         0.349244     -0.065172     -0.153612
Pb       3.79827     14.99341      8.29255        -0.929307     -0.088266     -0.041114
Pb       0.06706      3.76285      8.13224        -0.026515     -0.387477      0.620084
Pb       0.13723     14.89427      8.23911        -0.172294      0.360611      0.626312
Pb       4.01694      3.69368     12.35414        -1.036840      0.181963     -0.154042
Pb       3.67635     14.98008     12.34652         0.317296     -0.243359     -0.237549
Pb       0.07749      3.86464     12.27776         0.260353     -0.804235     -0.257198
Pb      15.00992     14.96564     12.22705         0.148715      0.011930     -0.553170
Pb       3.68872      7.61425      4.21146        -0.508124     -0.927951     -0.557040
Pb       3.74918      7.54096      0.01581        -0.077381     -0.178920     -0.412819
Pb      14.88180      7.58117      4.09929         0.253865     -0.161407     -0.141790
Pb      14.90504      7.47482      0.04256         0.091258     -0.216055     -0.117488
Pb       3.72961      7.52739      8.27095         0.393634     -0.451544     -0.171974
Pb       0.04209      7.50409      8.11500        -0.185811      0.360811      0.597101
Pb       3.69679      7.29057     12.39445         0.648218      0.372018     -0.450393
Pb      14.96677      7.46601     12.23840         0.240233      0.449786     -0.002612
Pb       3.58594     11.21172      4.10134         0.203377      0.671153     -0.699938
Pb       3.67812     11.31565      0.05834         0.416120      0.156587     -0.701899
Pb      14.89092     11.18493      4.11947         0.956545      0.243106      0.070342
Pb      14.93190     11.35096      0.07677         0.037362     -0.177812     -0.735683
Pb       3.54813     11.23018      8.26098         0.875313      0.305177      0.380375
Pb      15.00713     11.17333      8.10330        -0.529716      0.353804      1.184229
Pb       3.66776     11.08641     12.45298         0.098568      0.749639      0.016014
Pb      14.95587     11.19464     12.32270         0.113929      0.407825     -0.007857
Pb       7.46537      3.87576      4.23571         0.144801     -0.707856     -0.783799
Pb       7.54073      3.69767      0.22946        -0.061720      0.075469     -0.946898
Pb       7.57376      0.02258      4.25497        -0.625401     -0.176184     -0.505561
Pb       7.62071      0.02553      0.02302        -0.283054     -0.232880     -0.306515
Pb       7.59319      3.74115      8.14105        -0.808807     -0.264601      0.451591
Pb       7.47133     14.99918      8.29871         0.081453     -0.176620      0.139266
Pb       7.56934      3.74970     12.38858        -0.097623      0.369195     -0.746200
Pb       7.53675     14.99258     12.24885        -0.330360      0.147165      0.298672
Pb       7.32795      7.47136      4.18516         0.645983      0.576822     -0.578016
Pb       7.50927      7.38700      0.10608        -0.036953      0.524603     -0.372393
Pb       7.52030      7.36648      8.12396        -0.294827      0.730876      0.071903
Pb       7.58046      7.58823     12.34643        -0.215000     -0.989940     -0.072306
Pb       7.27564     11.18996      4.19732         0.462220      0.059142     -0.719205
Pb       7.37129     11.30697      0.05740        -0.225290     -0.557529      0.174910
Pb       7.42670     11.12063      8.22226        -0.200530      0.490755     -0.029925
Pb       7.52823     11.23426     12.39035        -0.129454      0.082501     -0.417190
Pb      11.28273      3.67695      4.24626        -0.315408      0.076902     -0.661329
Pb      11.36242      3.80009      0.11820        -0.382434     -0.050368     -0.107562
Pb      11.25506     14.97721      4.18412        -0.193680      0.464577     -0.211875
Pb      11.41386      0.13974     16.38487        -0.542138     -0.764653     -0.304730
Pb      11.43483      3.71282      8.27442        -0.718508      0.117228     -0.364048
Pb      11.26622     14.90179      8.21632         0.277508      0.434226      0.237356
Pb      11.27913      3.72955     12.17950        -0.385357      0.346906     -0.017988
Pb      11.29477     14.88136     12.35606         0.036350      0.182257     -0.580566
Pb      11.24184      7.55971      4.13837        -0.272415     -0.080530     -0.428718
Pb      11.21353      7.44211      0.17790         0.161943      0.254046     -0.662668
Pb      11.23730      7.51467      8.10274         0.131184      0.013486      0.244768
Pb      11.25838      7.43774     12.34315        -0.138021      0.562032     -0.117251
Pb      11.03066     11.28080      4.14556        -0.236461     -0.129879     -0.298271
Pb      11.15332     11.31868      0.02645         0.606418     -0.038963     -0.522238
Pb      11.16186     11.26217      8.22975         0.402637      0.061835      0.125445
Pb      11.23089     11.10728     12.40460         0.497261      0.585862     -0.095502
Ti       1.92236      1.84054      2.03333        -1.132332      0.188718      0.483453
Ti       1.81762      1.85760     14.31096         1.749191      0.824079     -0.230631
Ti       1.82367     13.13369      2.06182         0.003672      0.590888      0.435284
Ti       1.84484     13.14435     14.41078         1.061952     -1.051240     -0.178050
Ti      13.18205      1.77120      2.08789         0.019222      0.621730      0.246762
Ti      13.11977      1.95984     14.17492         1.070493     -0.609989      0.079441
Ti      13.09028     13.11191      2.13677         0.609529      0.897307     -0.409261
Ti      13.15578     13.20829     14.32080        -0.893396     -1.041856     -0.859385
Ti       1.82257      1.84083      6.14064         1.083662     -0.433313      0.692478
Ti       1.77560     13.08188      6.05577         1.300854      0.925362      1.279739
Ti      13.12359      1.88566      6.26598        -0.377175     -0.166595      0.238150
Ti      13.07282     13.11664      6.19791        -0.429827      0.470828      0.350382
Ti       1.90466      1.87460     10.29542        -1.404735     -1.000210     -0.304305
Ti       1.91291     13.03541     10.34706         0.028417      0.600885      0.414345
Ti      13.11180      1.88961     10.29655         1.476962     -1.196171     -0.358854
Ti      13.15682     13.07218     10.27528         0.506689      0.154099      0.592595
Ti       1.87928      5.57429      2.12389        -0.166136     -0.060866      0.537422
Ti       1.82231      5.62986     14.37206         0.775692      0.178415      0.340645
Ti      13.18487      5.55509      2.18801        -0.844701      0.984029     -0.336752
Ti      13.11427      5.61362     14.31428         0.163295      0.461768      0.790789
Ti       1.80241      5.70903      6.15898         1.146759     -0.878661     -0.246025
Ti      13.05986      5.69161      6.18463        -0.466790     -0.679989     -0.561385
Ti       1.92040      5.60482     10.27577         0.592048     -1.257448     -0.027042
Ti      13.19206      5.65546     10.20206        -1.060079     -0.186081     -0.190030
Ti       1.80277      9.32393      1.93765        -0.518214      0.314153      0.807643
Ti       1.79484      9.34648     14.38035         0.400959      0.695251      0.162119
Ti      13.05695      9.48341      2.03796        -0.243161     -1.949032     -0.505016
Ti      13.12543      9.35718     14.44483        -0.774988      1.543986     -0.464950
Ti       1.87598      9.42661      6.19178        -1.211279     -1.718987      0.381545
Ti      13.08100      9.43398      6.17273         0.698788     -1.387061      0.479654
Ti       1.84588      9.31358     10.29456         0.476456      0.356648      0.685076
Ti      13.10569      9.39920     10.25586         0.196427     -0.373588     -0.054864
Ti       5.69187      1.81800      2.01897        -1.113576      0.735259     -0.117923
Ti       5.71005      1.82910     14.40230        -0.613746     -0.396865     -0.028123
Ti       5.58579     13.16644      2.06484        -0.055936     -0.522427     -0.503401
Ti       5.68027     13.05446     14.33438        -1.735946      0.233964      0.349846
Ti       5.58166      1.78835      6.26675        -0.901478      1.051268     -0.808337
Ti       5.47810     13.08077      6.24107         0.798291     -0.343262     -0.381396
Ti       5.55832      1.77071     10.32243         0.652223      0.713368      0.638556
Ti       5.65175     13.02465     10.32759        -1.055914      0.562369      1.079047
Ti       5.58823      5.58440      2.09060        -0.190746     -0.253916      0.725401
Ti       5.63796      5.56543     14.47568         0.677367     -0.083108     -0.709481
Ti       5.54767      5.63422      6.12987        -0.802344     -1.416821      0.857240
Ti       5.70239      5.60618     10.24319        -0.574160     -0.371669      1.338339
Ti       5.45862      9.35584      2.13272         2.093164      0.776993     -1.040753
Ti       5.59403      9.25682     14.38206        -0.233994      1.336792      1.026958
Ti       5.53167      9.36523      6.22894         0.777597     -0.072355      0.731420
Ti       5.62413      9.35991     10.38965        -0.550106     -1.181967     -1.024913
Ti       9.43126      1.85693      2.12928         0.175685     -0.115082      0.715304
Ti       9.46236      1.90985     14.42537        -1.156682     -0.646604     -0.252364
Ti       9.34581     13.14684      2.08420        -0.982123     -0.571725     -0.145281
Ti       9.39163     13.14785     14.34279         0.647283      0.779915      0.926140
Ti       9.33295      1.85335      6.24872         0.101137      1.043094     -0.354952
Ti       9.27540     13.20352      6.23265        -0.285542     -1.146379      0.201110
Ti       9.38973      1.86655     10.31785        -0.567165     -0.301297     -0.238689
Ti       9.40155     13.10039     10.30677        -0.193018      0.069548     -0.251895
Ti       9.39248      5.62816      2.12644        -0.296513     -0.541832      0.791574
Ti       9.39285      5.61419     14.43208        -0.445623      0.608891     -0.030229
Ti       9.33400      5.59839      6.13466        -0.136302      1.289978      0.325936
Ti       9.44493      5.67550     10.14949        -1.715142     -1.368730      0.698950
Ti       9.25610      9.36904      2.10010        -0.448780      0.430023      0.990555
Ti       9.33512      9.43935     14.43722         0.691974     -1.735588      0.350795
Ti       9.36807      9.41508      6.17304        -0.461603     -1.052167     -0.735625
Ti       9.39131      9.35348     10.16250        -0.041597      0.449037      1.872911
O       1.78115      1.96386      0.23329        -0.293446      0.163469     -0.554792
O       1.78600      1.79957     12.46658         0.392692     -0.027708      0.822118
O       1.73243     13.05601      0.25363         0.118969      0.023457     -0.245920
O       1.82814     13.15227     12.60131         0.221229     -0.173718     -0.387365
O      13.16846      1.88239      0.24816        -0.121702     -0.233501     -0.250202
O      13.22339      1.96432     12.35591        -0.320169      0.054919      1.019957
O      13.15750     13.15906      0.31147        -0.261217     -0.023424     -0.182892
O      13.12876     13.09067     12.44368         0.096784      0.297204      0.904806
O       1.90326      1.85308      4.32003        -0.475622     -0.273663      0.168637
O       1.79027     13.11762      4.29376         0.147703     -0.009422     -0.531716
O      13.12085      1.94543      4.43545         0.295211     -0.101533     -0.273562
O      12.98021     13.17283      4.37363         0.348111     -0.538932      0.291540
O       1.85270      1.80429      8.42688         0.280807      0.214569     -0.306409
O       1.89410     12.99872      8.52805        -0.361381      0.417237     -0.664607
O      13.00128      1.91350      8.42953         0.056286     -0.298615     -0.361696
O      13.17115     13.10013      8.45069        -0.228474     -0.226711     -0.826867
O       1.80043      5.62178      0.32047        -0.018454     -0.200085     -0.550662
O       1.87670      5.62290     12.55127        -0.415437      0.312896     -0.378941
O      13.16689      5.59141      0.30615         0.121986      0.314968     -0.169446
O      13.09381      5.51343     12.50129        -0.077429      0.434237     -0.183424
O       1.81037      5.77619      4.36574        -0.039330     -0.515969      0.039043
O      13.03952      5.63147      4.27985         0.030493     -0.362680      0.921157
O       1.90722      5.54313      8.43231        -0.373487      0.336181      0.017802
O      13.13001      5.66208      8.36892        -0.190472      0.176053     -0.094553
O       1.89585      9.51687      0.15820        -0.353458     -0.805316      0.421086
O       1.82686      9.32130     12.54956        -0.192536     -0.168235     -0.708213
O      13.16439      9.52001      0.19787        -0.190308     -0.343592      0.795586
O      12.97524      9.46222     12.53538         0.726564     -0.590341      0.611381
O       1.61913      9.32327      4.44678         0.795704      0.175846     -1.505288
O      13.06406      9.35325      4.37026         0.272654      0.437857     -1.061130
O       1.98530      9.32193      8.46750        -0.280144     -0.187650     -0.474283
O      12.97744      9.29769      8.42446         0.607383      0.114129     -0.057061
O       5.58068      1.97606      0.16669         0.443221     -0.716788      1.445463
O       5.51675      1.84043     12.51161         0.726353     -0.203357      1.007548
O       5.54559     13.09575      0.22049         0.559199      0.157939      0.354778
O       5.63428     13.00498     12.51447         0.177241      0.060909      0.940901
O       5.43093      1.73987      4.37870         0.718332      0.485304      0.103914
O       5.54775     13.08953      4.39037        -0.148418      0.013848      0.102426
O       5.55494      1.69240      8.51277        -0.080892      0.311648     -1.025263
O       5.70233     12.98208      8.53279        -0.395543      0.358701     -1.310497
O       5.58142      5.48513      0.30325         0.063797      0.733366     -0.579842
O       5.68731      5.64686     12.61564        -0.241911     -0.289408      0.659244
O       5.54207      5.54845      4.34682         0.213419      0.159161     -0.878831
O       5.70430      5.64443      8.46282        -0.305804      0.056676     -0.753872
O       5.60967      9.41412      0.31377        -0.499265     -0.503991     -0.039107
O       5.73281      9.17156     12.60132        -0.395387      0.736397     -1.300509
O       5.48758      9.33107      4.39782         0.224130      0.599554     -0.556938
O       5.52747      9.37974      8.43760         0.243962     -0.432848      0.641609
O       9.48323      1.99015      0.34030        -0.089640     -0.716244     -0.614124
O       9.24911      1.78072     12.60338         0.574123      0.479675      0.201217
O       9.21138     13.03895      0.27064         0.671345      0.007370      0.085590
O       9.40216     13.30345     12.53439        -0.125661     -0.805125     -0.316161
O       9.25147      1.87921      4.39703         0.160565     -0.324513     -0.022552
O       9.44463     13.32551      4.41825        -0.321133     -0.680451     -0.570608
O       9.36419      1.89647      8.47799         0.141643     -0.119472     -0.449181
O       9.26993     13.01467      8.45199         0.286645      0.563591      0.183218
O       9.30829      5.68634      0.30041         0.353990     -0.350095      0.077130
O       9.39464      5.63515     12.57590         0.257128     -0.193934      0.473835
O       9.37075      5.63340      4.33809        -0.348477     -0.112283     -0.698744
O       9.31240      5.54098      8.32862        -0.224436      0.286315      0.529716
O       9.07543      9.42263      0.32745         1.131064      0.018082     -0.989219
O       9.54094      9.36621     12.58613        -0.678279     -0.276282      0.323446
O       9.32304      9.32988      4.35022         0.309763     -0.045304      0.231819
O       9.34737      9.44390      8.40739         0.285544     -0.324039     -1.234585
O       3.69060      2.24049      2.21258         1.334909      0.131124      0.113860
O       3.75826      1.76101     14.69984        -0.451293      0.177545     -0.715138
O       3.70628     12.83526      2.26227        -0.481682      0.026567      0.570402
O       3.71244     13.28525     14.69200         0.458976     -0.107050     -0.354744
O      14.95342      1.44823      2.35109         1.029678      0.535038      0.234423
O       0.01115      2.01734     14.44017        -1.070892      0.511466      0.748269
O      14.98392     13.42944      2.37564         0.081419     -0.211053      0.253774
O      14.96284     13.00741     14.58016         0.496015      0.143723      0.448161
O       3.67508      2.03001      6.44483         0.087045      0.012882      0.307967
O       3.63054     12.87439      6.44847         0.713909     -0.346347     -0.043462
O      14.98432      1.57859      6.44237         0.151818      0.669349      0.111149
O      14.99534     13.23971      6.44287        -1.123320      0.058094     -0.063012
O       3.69342      1.79512     10.53732         1.064602      0.520871      0.162089
O       3.80009     12.82610     10.64080        -0.819000     -0.215051     -0.196091
O      15.00066      1.67575     10.33499        -0.499067      0.054150      0.452600
O       0.06325     13.20483     10.60064        -1.119000      0.053260     -0.171901
O       3.71943      5.29320      2.39031         0.012018      0.018172     -0.300319
O       3.77885      5.77915     14.68426        -0.999568      0.256802      0.020105
O      14.98119      5.91376      2.46406         0.011908     -0.452947     -0.509283
O      15.00856      5.48518     14.61334        -1.496471     -0.214833     -0.034456
O       3.73689      5.54020      6.39096        -1.641886     -0.764936      0.614265
O      14.92694      5.87734      6.42443         0.042260     -0.420128     -0.189884
O       3.73894      5.48184     10.57151         0.382085      0.215210     -0.148093
O      14.99003      5.56575     10.46790         0.837060      0.642934      0.337293
O       3.65289      9.64869      2.33566        -0.468555     -0.334277      0.297759
O       3.68312      9.21903     14.59379         0.646511     -0.621641      0.019490
O      14.97596      9.04640      2.22675        -0.266364      0.317168      0.224472
O      14.96974      9.50708     14.61288        -0.459301      0.548553      0.196725
O       3.66188      9.68200      6.34688         1.184975     -0.528688      0.164603
O      14.98566      9.19812      6.48961        -0.889354     -0.225043      0.460280
O       3.76530      9.58883     10.61699        -0.128604     -0.873559     -0.241058
O       0.01937      9.15272     10.41457        -0.742459     -0.453171      0.406165
O       7.48972      1.46078      2.28898         0.227729      0.383392     -0.203809
O       7.56085      1.90906     14.79678        -0.108330      0.268625     -0.396121
O       7.40992     13.51135      2.26278         0.979530     -0.427051      0.660295
O       7.54715     12.98808     14.53537        -0.780454     -0.331094      0.167101
O       7.39674      1.67789      6.53732         0.821761     -0.046149     -0.060044
O       7.42763     13.38592      6.40221        -0.270264     -0.489674      0.097533
O       7.44997      1.62741     10.51959         0.412229      0.218124     -0.040322
O       7.47907     13.27665     10.59782         1.286844     -0.161203     -0.012535
O       7.47166      5.88188      2.42610        -0.188963     -0.445410     -0.308133
O       7.49629      5.56418     14.74590         0.430734     -0.359727     -0.124855
O       7.37505      5.82009      6.37014         1.588490      0.056200      0.040979
O       7.53212      5.60096     10.56939         0.618615      0.481825     -0.155557
O       7.40515      9.26805      2.35008        -0.238186     -0.712211      0.852040
O       7.47332      9.56059     14.55785         0.470248      0.185686     -0.019350
O       7.48414      9.10866      6.33645        -0.742779      0.239555      0.528752
O       7.53413      9.07719     10.50113         0.289250      0.477993     -0.002949
O      11.31227      2.06357      2.37151        -0.815938     -0.083435      0.322736
O      11.30164      1.72939     14.60451         0.115056      0.267298     -0.170738
O      11.21612     12.81968      2.27506         0.497157     -0.286858      0.218402
O      11.25968     13.33372     14.56714        -0.067173      0.142420      0.514930
O      11.19323      1.96993      6.39111         0.201968      0.502070      0.217583
O      11.17790     12.97790      6.56112         0.686933      0.343913     -0.220338
O      11.26438      1.89906     10.68715        -0.504497      0.306523     -0.491252
O      11.30522     12.83889     10.55808        -1.136884      0.402413     -0.547244
O      11.22754      5.31128      2.28457         0.024424      0.285938      0.090401
O      11.28148      5.74436     14.78505        -0.317504      0.310177     -0.325937
O      11.11039      5.36793      6.35811         2.497213     -0.040708      0.407570
O      11.22352      5.49235     10.36062         1.240334     -0.632385      0.589807
O      11.19421      9.64868      2.31590         0.257115      0.165297     -0.220573
O      11.29261      9.23210     14.83014        -1.307248      0.132911     -0.112154
O      11.27405      9.48658      6.40587        -1.548137      0.626832      0.314850
O      11.28190      9.59867     10.55131        -0.827165     -0.482623     -0.529978
O       1.44675      3.70325      2.42449         0.223066      0.662055     -0.237102
O       1.99178      3.82864     14.48650         0.081128     -1.896490      0.507954
O       2.23456      0.02712      2.13953        -0.464231     -1.061883      0.482303
O       1.72190      0.01533     14.78981         0.395155      0.256942     -0.963151
O      13.31761      3.69902      2.18519         0.760739      0.070433      0.813178
O      12.90207      3.76518     14.56387         0.482260     -0.043057      0.297988
O      12.90700     14.95349      2.48150        -0.669112     -0.004576     -0.305927
O      13.26662      0.09851     14.45377         0.042880     -0.233192      0.494757
O       1.70163      3.76671      6.37833        -0.442332     -0.215591     -0.052119
O       2.13968     14.94316      6.39258        -0.925995      0.008231      0.009266
O      13.25913      3.80036      6.46162         0.016759     -0.647446      0.055184
O      12.95816      0.00698      6.45588        -0.176326     -0.841034      0.008797
O       1.87330      3.66436     10.55408        -0.658114      1.386777      0.065990
O       1.97162     14.91304     10.57504         0.304718      0.160292     -0.191116
O      13.23815      3.75738     10.40245        -0.593418     -0.044473      0.172462
O      13.00827     14.92823     10.45150        -0.217019      0.716782      0.088834
O       2.09569      7.47074      2.29580         0.227248      0.757152     -0.174936
O       1.57570      7.51622     14.67287         0.649392     -0.654168      0.137390
O      12.81608      7.54952      2.26958         0.195745     -0.224390      0.011235
O      13.25915      7.52470     14.59042         0.117853     -1.156123     -0.090507
O       2.01939      7.49757      6.47926         0.142665      0.935007      0.513440
O      12.76667      7.48801      6.31143         0.613752     -0.003645      0.308583
O       1.94237      7.39888     10.61445         0.169072      1.076908     -0.234969
O      13.02405      7.47857     10.59478        -0.110089     -0.154742      0.128794
O       1.60717     11.21450      2.38065        -0.377984     -0.084584      0.012923
O       2.01343     11.23969     14.52728        -0.210509      0.502472      0.249512
O      13.57097     11.23828      2.31303        -1.049300      0.609053     -0.167287
O      12.90385     11.37740     14.52881         0.201283     -1.355242      0.541773
O       1.60778     11.21274      6.46700         0.212243      1.053048     -0.234155
O      13.22072     11.22307      6.36609         0.244657      1.480008      0.360366
O       1.64242     11.15005     10.45512         0.247158      0.081091      0.579912
O      13.43589     11.19181     10.49342        -0.244574      0.011154     -0.204952
O       5.99058      3.73619      2.24983        -0.324669     -0.689175      0.739229
O       5.55698      3.68297     14.65984        -0.128467      0.918850     -0.548590
O       5.22354      0.01983      2.24966         0.051595      0.141932      0.088255
O       5.76118     14.96807     14.65079         0.046852     -0.314418     -0.093699
O       5.68109      3.68933      6.49855         0.265252      0.386883     -0.049539
O       5.30450     14.95048      6.39528         0.040797     -0.406368      0.569417
O       5.61107      3.70046     10.66166         0.584469     -0.226232     -0.591570
O       5.36246     14.91557     10.57995         0.522664     -0.380812     -0.089446
O       5.32147      7.49831      2.39882        -0.012019     -0.372610     -0.138890
O       5.74195      7.48265     14.74273         0.034336     -0.497896      0.432695
O       5.29000      7.46255      6.32269         0.300143      1.604845      0.625229
O       5.48662      7.41644     10.61707        -0.092530      0.868319     -0.330240
O       5.79022     11.28297      2.28727         0.097540     -0.303036      0.634238
O       5.37618     11.18488     14.67470         0.627367      0.667258     -0.440578
O       5.76089     11.20816      6.45587         0.398734      0.341032     -0.090874
O       5.87901     11.15068     10.65986         0.385420      0.158554     -0.125002
O       9.11548      3.65594      2.37484        -0.412391      1.414415      0.229565
O       9.46382      3.75984     14.74236         0.308712     -0.034786     -0.506429
O       9.69923     14.93563      2.27808        -0.036505      0.981043      0.170100
O       9.37272      0.00212     14.79229        -0.426848      0.009688     -0.043891
O       9.09063      3.77083      6.31310        -0.381152     -1.045487      0.431511
O       9.40411      0.04026      6.39947         0.511560     -0.556141      0.888691
O       9.25772      3.66744     10.54564         0.175962      1.476585      0.337266
O       9.52265     15.00005     10.53768         0.173703     -1.020795     -0.271800
O       9.49647      7.46979      2.36369         0.503618      0.860701     -0.261976
O       9.22894      7.52156     14.70782         0.154344      0.066119     -0.020404
O       9.60218      7.50379      6.44254        -0.713680     -0.262932      0.092986
O       9.61261      7.47989     10.44487        -0.184606      0.278922      0.160057
O       9.10057     11.25173      2.52820         0.084625      0.713290     -0.124834
O       9.58604     11.26150     14.66110        -0.227856      0.461991     -0.339845
O       9.17317     11.25651      6.30200        -0.057545      0.372074      0.376157
O       9.25613     11.21752     10.45513        -0.702903      0.046565      0.587584
