  # total energy = -7879.22823846 
CRSYTAL
PRIMVEC
    15.2000000000000000    0.0000000000000000    0.0000000000000000
     0.0000000000000000   15.2000000000000000    0.0000000000000000
     0.0000000000000000    0.0000000000000000    17.000000000000000
PRESSURE
7.91608 7.91729 5.46109 0.266732 -0.087307 0.054445
PRIMCOORD
320 1
Pb       3.75976      3.75563      4.14246        -0.152221      0.000020      0.432617
Pb       3.92698      3.85829     16.95325        -0.487114     -0.161543      0.072361
Pb       3.68070      0.07230      4.29037         0.533100     -0.150026     -0.412136
Pb       3.79697     15.18149     16.98332        -0.401721     -0.482912     -0.195028
Pb       0.01946      3.89068      4.25825         0.093409      0.015498     -0.398752
Pb      15.17151      3.66547      0.08634        -0.668613      0.509977     -0.610687
Pb       0.03017      0.10814      4.29133        -0.141241     -0.342043     -0.501563
Pb      15.08041     15.14097      0.00967         0.606631      0.392241      0.008672
Pb       4.04147      3.71630      8.48916        -0.990629     -0.053089      0.093382
Pb       3.77863     15.06647      8.70319         0.205968     -0.169841     -0.516063
Pb       0.12748      3.78271      8.48624        -0.441763     -0.311516      0.020080
Pb      15.16845     15.03708      8.53774        -0.210764      0.534753     -0.195285
Pb       3.72070      3.83163     12.72509         0.247656      0.008454      0.072873
Pb       3.60806      0.04382     12.80189         0.510490     -0.223957      0.025134
Pb      15.14749      3.78923     12.66300         0.066320      0.350249      0.576099
Pb      15.19416      0.14301     12.82231        -0.161970     -0.964131      0.045828
Pb       3.79924      7.46282      4.19815        -0.259379      0.501266     -0.094150
Pb       3.85934      7.55810      0.01697        -0.492374      0.205844     -0.037068
Pb      15.18201      7.61104      4.16136         0.056168     -0.141052     -0.034507
Pb      15.12380      7.55149     16.88928        -0.264577      0.256980      0.529289
Pb       3.85985      7.66382      8.41308        -0.145263      0.108274     -0.091009
Pb       0.01555      7.50223      8.37581        -0.432746      0.676905      0.469761
Pb       3.71766      7.54085     12.65563         0.070779      0.306820      0.620573
Pb      15.17867      7.58590     12.59826        -0.214524     -0.218737      0.497421
Pb       3.65047     11.27320      4.25309         0.447895      0.557610     -0.348886
Pb       3.86694     11.30593      0.26582        -0.031508      0.727413     -0.914189
Pb      15.19888     11.40194      4.19737        -0.032308      0.043042     -0.374870
Pb       0.01406     11.40450      0.07619        -0.096905     -0.143246     -0.195910
Pb       3.86830     11.34454      8.55634         0.024865      0.434808     -0.387716
Pb      15.14588     11.37093      8.45295         0.125773     -0.265656      0.051445
Pb       3.61832     11.28794     12.89269         0.126513      0.233300     -0.078090
Pb      15.16200     11.30252     12.81883        -0.011174      0.019702     -0.253168
Pb       7.45624      3.62194      4.18815         0.291571      0.522813      0.032546
Pb       7.54353      3.73995     16.88245        -0.021889      0.192659      0.254139
Pb       7.57632     15.08934      4.30366        -0.144373      0.524935     -0.368852
Pb       7.64786     15.11217     16.97817        -0.345945      0.000631      0.021875
Pb       7.63014      3.79291      8.50939        -0.092723     -0.399031     -0.110314
Pb       7.64741     15.15110      8.39072        -0.202379      0.500819      0.582903
Pb       7.57403      3.89895     12.77725        -0.350973     -0.488245     -0.009204
Pb       7.62466      0.05586     12.71332        -0.495729     -0.034139      0.769736
Pb       7.70421      7.44809      4.30450         0.175390     -0.134182     -0.770968
Pb       7.49358      7.71679     16.89145         0.897302      0.057975      0.590661
Pb       7.58346      7.62128      8.46540         0.156742     -0.126442      0.033759
Pb       7.54357      7.65843     12.75481        -0.316530     -0.220575     -0.287692
Pb       7.53548     11.19926      4.33329         0.577743      0.938746     -0.944744
Pb       7.75276     11.45224     16.88484        -0.713099     -0.726101      0.413982
Pb       7.60617     11.44424      8.52193        -0.242768     -0.141483      0.060772
Pb       7.51641     11.31047     12.67847         0.552541      0.179962      0.616154
Pb      11.29067      3.74124      4.26802         0.237215      0.553507     -0.350085
Pb      11.32914      3.65557      0.01997         0.682187      0.836807      0.113562
Pb      11.37836     15.13788      4.26880         0.197639     -0.059298     -0.196816
Pb      11.40565     15.07937     16.97547         0.058831      0.601355      0.426669
Pb      11.43130      3.83697      8.50293        -0.014904     -0.380087     -0.003204
Pb      11.40830      0.03071      8.26014         0.034126     -0.373787      0.808890
Pb      11.32440      3.83453     12.78119         0.353436     -0.369827     -0.595151
Pb      11.47289      0.03041     12.60355        -0.448813     -0.092165      0.789764
Pb      11.39377      7.63519      4.21425         0.006722     -0.631294     -0.383268
Pb      11.25766      7.49528     16.89865         0.636656      0.625661      0.484975
Pb      11.31689      7.52641      8.45457         0.211069      0.480439     -0.114371
Pb      11.35656      7.57704     12.66020         0.425595      0.271113      0.198380
Pb      11.31094     11.18829      4.29936         0.206912      1.240324     -0.745688
Pb      11.37277     11.58790     16.88944         0.032643     -1.175196      0.533874
Pb      11.50561     11.43732      8.50518        -0.473659     -0.389309      0.190517
Pb      11.40173     11.50512     12.59189        -0.484278     -0.626414      0.666552
Ti       1.82420      1.93922      2.09260         1.134633     -0.141654      0.921899
Ti       1.91541      2.00238     14.98271        -1.076747     -1.320368      0.943479
Ti       1.87353     13.34212      2.26021         0.073596     -0.389960     -0.732945
Ti       1.84728     13.36372     15.08543         0.738781     -0.501450      0.951632
Ti      13.29850      1.90911      2.29202        -0.765597      0.002956     -0.063502
Ti      13.29881      1.90932     15.02821         0.492734      0.056732     -0.151074
Ti      13.24042     13.31641      2.29857        -0.014349     -0.563999      1.053651
Ti      13.34351     13.28647     14.94870        -0.453230     -0.142624     -0.408477
Ti       1.93739      1.83375      6.63135        -0.981723      0.795205      0.216228
Ti       1.85078     13.32562      6.45717         0.411209     -0.711132      0.729853
Ti      13.35798      1.94451      6.37700         0.197052     -0.662728      1.096538
Ti      13.26466     13.24803      6.41606        -0.076757      0.018658      1.770880
Ti       1.89454      1.87236     10.76015         0.481669     -0.635672     -0.450595
Ti       1.84753     13.25684     10.77343        -1.238062     -0.271651     -0.599335
Ti      13.33691      1.85765     10.75200        -1.139871      0.802747      0.339977
Ti      13.29391     13.26491     10.74133         0.111475      0.698070     -0.014799
Ti       1.88478      5.69966      2.13961        -0.188811     -0.367765      1.260588
Ti       1.82980      5.69633     15.05422         0.381150      0.680983     -1.084652
Ti      13.24281      5.73560      2.18687         0.059221     -0.741756      0.546536
Ti      13.25156      5.69628     14.89004         0.385348     -0.165662      0.698775
Ti       1.89792      5.71082      6.53961        -0.044753     -0.917628      0.187926
Ti      13.29030      5.67594      6.41412        -0.606248      0.720455      0.068111
Ti       1.82944      5.66315     10.67372        -0.505489     -0.168856      0.391801
Ti      13.17766      5.60994     10.67853         1.101073      0.740920      2.567083
Ti       1.91609      9.43626      2.09399        -0.403528      0.616075      1.106232
Ti       1.92676      9.53727     15.11533        -1.080338      0.039167      0.973593
Ti      13.27156      9.50103      2.18439         1.169693     -0.037109     -0.377010
Ti      13.29233      9.51365     15.00258         0.521422     -0.069017     -0.900506
Ti       1.87907      9.54853      6.46326        -0.030895     -0.278142      0.894997
Ti      13.27633      9.44248      6.47179         0.140214      0.119739      2.069620
Ti       1.84130      9.47701     10.62619         0.372218     -0.307050     -0.147227
Ti      13.26119      9.46379     10.73593         0.153699     -0.364243     -1.554305
Ti       5.61586      1.85414      2.12368         0.487470     -0.097078      0.798300
Ti       5.62287      1.85174     14.94593         1.389553      0.478234      0.425073
Ti       5.65240     13.26497      2.25182         0.088736      0.159947      0.828161
Ti       5.64739     13.32845     14.96215        -0.225750     -0.816572      0.794316
Ti       5.66439      1.79861      6.54898         0.720653      0.373026     -0.211964
Ti       5.66815     13.26025      6.38306        -0.548117      0.401738      0.724012
Ti       5.73379      1.84301     10.79518        -0.515706      0.427143      0.379642
Ti       5.60345     13.20672     11.01249         0.116904      0.447036     -1.402385
Ti       5.69512      5.70320      2.30364         1.277198      0.441053      0.341119
Ti       5.68977      5.79400     15.06589        -0.558275     -0.838070     -1.377322
Ti       5.64912      5.70257      6.46123         1.259050     -0.295503     -0.103156
Ti       5.63358      5.66915     10.69512         0.600552      1.337129      1.548026
Ti       5.73651      9.49721      2.26897        -0.203385      0.184869     -0.207742
Ti       5.64400      9.57892     15.01585         0.548936      0.281490      0.018382
Ti       5.74456      9.51768      6.34147        -1.046346      0.050303      1.449320
Ti       5.64099      9.47678     10.75674        -0.556702     -0.056917      0.684908
Ti       9.42667      1.88164      2.26213         0.023915     -0.719899      1.924083
Ti       9.50703      1.90553     14.97873        -0.657623     -0.468085     -0.590469
Ti       9.42886     13.31699      2.29201         0.607375     -0.389090      0.257541
Ti       9.49739     13.35178     14.89387        -0.044299     -1.008131      0.574415
Ti       9.53730      1.89620      6.39359        -1.278788     -0.430880      1.382874
Ti       9.45091     13.20814      6.47669         1.190687      0.188644     -0.883714
Ti       9.50971      1.89737     10.70153        -0.183687      0.526119     -0.145967
Ti       9.41818     13.38149     10.74158         0.397028     -1.305868      0.773561
Ti       9.51498      5.64485      2.20766        -0.496718      0.279738      0.974640
Ti       9.50251      5.67891     14.93363        -0.102125      0.214916      1.608763
Ti       9.42654      5.59432      6.49074         0.480939      1.072313     -0.826459
Ti       9.41444      5.70332     10.71512        -0.106549     -0.004797      0.044536
Ti       9.44266      9.50173      2.12207         0.471974     -0.313809     -0.178971
Ti       9.59955      9.44879     14.79746        -0.526632      1.287182      1.983017
Ti       9.47899      9.51133      6.46003         0.571210     -0.819055      0.865628
Ti       9.46895      9.48550     10.69028         0.056583      0.488276      0.929924
O       1.88193      1.94972      0.35108         0.101591      0.252082     -0.235921
O       1.75209      1.89638     13.20857         0.699445     -0.155447     -0.455930
O       1.88248     13.33792      0.45519        -0.055224      0.001244      0.846772
O       1.88267     13.48761     13.34189        -0.417722     -0.586810     -1.195631
O      13.30102      1.89675      0.49722        -0.029557     -0.038235      0.061588
O      13.34974      1.95588     13.22131        -0.467378     -0.207443      0.634347
O      13.09133     13.26378      0.54936         0.592360      0.613395     -0.937988
O      13.41444     13.32242     13.18138        -0.429149     -0.324989     -0.183813
O       1.86399      1.86007      4.85157         0.024766     -0.213007     -0.543507
O       1.87775     13.28164      4.66940         0.060755      0.348805      0.091090
O      13.46210      1.96557      4.63106        -0.067435     -0.242303     -0.378584
O      13.23385     13.19152      4.71736         0.340187      0.011675     -1.528615
O       1.89461      1.82530      8.98128        -0.004066      0.277361      0.199636
O       1.77951     13.30298      8.95364         0.452447     -0.167941      0.900001
O      13.21139      2.02339      9.03114        -0.046090     -0.371243     -1.023322
O      13.18886     13.24919      8.95893         0.492013      0.240276      0.114267
O       1.96587      5.63596      0.42763        -0.212172     -0.249766     -0.991160
O       1.89201      5.79843     13.24104        -0.020205     -0.384000      0.080991
O      13.10240      5.76674      0.43773         0.501094     -0.212241      0.203890
O      13.12823      5.71992     13.09870         0.491587     -0.342985      1.095505
O       1.81089      5.65531      4.79711         0.344140      0.102422     -0.945350
O      13.20619      5.81362      4.65090         0.517441     -0.278320      0.219206
O       1.82955      5.56767      8.90888         0.381000      0.477555     -0.175299
O      13.15616      5.60020      8.97894         0.206736      0.026956     -2.332978
O       1.84746      9.53964      0.34525         0.172543     -0.046087      0.095499
O       2.00531      9.50445     13.36841        -0.307292     -0.283885     -1.568048
O      13.46473      9.46089      0.45028        -0.560486      0.127830     -0.723239
O      13.29866      9.52024     13.19010         0.385216      0.136308     -0.302621
O       1.99374      9.66701      4.73507        -0.713567     -0.803621     -1.397946
O      13.22390      9.49664      4.73673         0.073255     -0.176352     -1.611702
O       1.85370      9.52461      8.86277         0.272420     -0.207382     -0.521895
O      13.30205      9.55248      8.88212        -0.094034     -0.510891      1.859343
O       5.69879      1.93165      0.35211        -0.032670     -0.082978     -0.287037
O       5.67806      1.86353     13.21505        -0.061148      0.375950     -0.935553
O       5.66369     13.20740      0.50796        -0.037809      0.476266     -0.920639
O       5.74350     13.30138     13.22664        -0.491603      0.089714     -1.286580
O       5.64504      1.86721      4.77476        -0.222463     -0.155160     -0.040469
O       5.69941     13.26014      4.61270         0.011210      0.224105      0.699878
O       5.73153      1.86953      9.02135        -0.238526      0.190581     -0.552788
O       5.60935     13.14766      9.16573        -0.050893     -0.048484      0.944215
O       5.78186      5.77466      0.55136        -0.335195     -0.292529     -1.440297
O       5.68252      5.87579     13.28247        -0.026706     -0.304762     -0.025022
O       5.59731      5.75657      4.67553         0.521474     -0.001466      0.118331
O       5.76562      5.81801      8.97765        -0.498575     -0.340147     -1.495787
O       5.70656      9.56487      0.46991        -0.071944     -0.299236     -0.278326
O       5.57903      9.39398     13.23736         0.013002      0.189390      0.420179
O       5.72742      9.59535      4.59939        -0.129987     -0.517127     -0.473118
O       5.67706      9.70974      9.01491        -0.233305     -0.350895     -1.318791
O       9.30953      1.81231      0.55844         0.551338      0.144891     -2.327579
O       9.49349      1.95658     13.21932         0.332119      0.006821     -0.313627
O       9.56625     13.44376      0.47844        -0.204116     -0.285755      0.349156
O       9.57635     13.37667     13.16512        -0.410415     -0.332313     -0.200712
O       9.31224      1.95595      4.66696         0.403630      0.097643     -0.354957
O       9.38676     13.11744      4.69132         0.154047      0.320952      0.194827
O       9.49299      1.81900      8.92531         0.021498     -0.070264      0.208849
O       9.52754     13.32308      8.99917        -0.552796      0.137258     -0.873703
O       9.45502      5.79951      0.47955         0.286906     -0.459454     -1.486719
O       9.51531      5.63540     13.21329        -0.061914     -0.075970     -1.477051
O       9.36728      5.52037      4.68016         0.451328      0.324654      1.288091
O       9.35846      5.75223      8.95462         0.273980      0.194789     -0.683041
O       9.46503      9.50875      0.35367         0.035490     -0.365882      0.829707
O       9.51010      9.47749     13.06488        -0.156519      0.139568     -0.671375
O       9.52547      9.65195      4.66341        -0.193551     -0.738364      0.052079
O       9.51524      9.45416      8.93016        -0.491913     -0.029810      0.074762
O       3.77477      2.13857      2.47014        -0.555896     -0.661697      0.144943
O       3.78788      1.78933     15.23086        -0.445212      0.135884      0.322284
O       3.79822     13.13642      2.50290        -1.156257      0.054533      0.481306
O       3.76265     13.34691     15.34824         0.746923      0.349855      0.191537
O       0.00062      1.84902      2.51151         0.470637     -0.195699      0.344222
O       0.00680      1.97609     15.41296        -0.300518     -0.087828     -0.000477
O      15.17804     13.38301      2.67297         0.234909      0.298388     -0.102871
O      15.13203     13.31641     15.50838         0.503044     -0.576879     -0.146736
O       3.77153      1.88744      6.91486         0.765947     -0.307651      0.372147
O       3.76377     13.37506      6.91293         0.326984     -0.480929     -0.512904
O      15.16162      1.86840      6.99006        -0.303135     -0.022669     -0.461313
O      15.14553     13.31947      6.86255         0.314146     -0.153041     -0.235103
O       3.83223      1.87027     11.11228        -1.054333      0.253674      0.193656
O       3.63654     13.29520     11.18644         1.735808      0.011253      0.258021
O      15.16569      1.83005     11.14309         0.732033      0.437607     -0.311412
O      15.15794     13.29330     11.15235        -0.009246     -0.296925     -0.243398
O       3.81837      5.60297      2.59440        -0.958357      0.284479      0.072139
O       3.78469      5.68917     15.35044         0.356678      0.532791      0.527742
O      15.18165      5.84408      2.59108         0.196086     -0.553316     -0.236642
O      15.16178      5.59099     15.38801        -0.449526      0.060796     -0.179121
O       3.85560      5.65767      6.79601        -1.116155      0.500610      0.641639
O      15.17542      5.66750      6.89187        -0.233697     -0.412405     -0.260904
O       3.71537      5.83572     11.04806         0.487914     -0.641019     -0.185149
O      15.12311      5.61703     11.07949         0.786726     -0.041546     -0.117834
O       3.80643      9.60812      2.59600        -0.603975     -0.009749     -0.288215
O       3.73735      9.54625     15.54312         1.505448     -0.309211     -0.306773
O       0.09868      9.26258      2.48157        -1.060855      0.535756      0.688180
O      15.18411      9.67743     15.35591         0.201939     -0.550379     -0.025175
O       3.85467      9.56064      6.66014        -0.532018     -0.246397      0.929396
O      15.18018      9.39532      6.83565        -0.108035      0.418398     -0.274661
O       3.71336      9.38467     10.95478        -0.170178     -0.144687      0.368743
O      15.18647      9.53136     11.03386        -0.800698      0.105684      0.553795
O       7.50093      1.66632      2.55640         0.101568      0.615333      0.362207
O       7.59553      2.14834     15.20818         0.030053     -1.041826      0.315941
O       7.55276     13.53764      2.53819         0.573262     -0.158855     -0.062546
O       7.56952     13.24307     15.46257         0.884628      0.358627     -0.857748
O       7.54477      1.84421      6.88268         0.779915      0.446944     -0.034999
O       7.65109     13.33085      6.87085        -1.832713     -0.570456      0.027418
O       7.57916      2.02624     11.17737         0.749052     -0.056448     -0.073600
O       7.50439     13.21849     11.24974         0.372061      0.150155     -0.564205
O       7.70333      5.71932      2.72965        -2.299766     -0.052214     -0.247484
O       7.61806      5.68834     15.33541        -0.205044      0.088949     -0.055564
O       7.59576      5.73767      6.90533        -0.937191     -0.338248     -0.225201
O       7.52349      5.76293     11.14371         0.570491     -0.643620      0.140484
O       7.57229      9.34411      2.57475         0.938084      0.226086      0.277310
O       7.65176      9.50055     15.34024        -0.714755      0.028812     -0.654126
O       7.57389      9.59848      6.77634         0.190463     -0.109314      0.072235
O       7.49893      9.59062     11.03667         1.820550     -0.138661      0.240333
O      11.36433      1.98773      2.75081         0.371183     -0.366371     -0.559495
O      11.43109      1.88538     15.58080        -0.744793     -0.579063     -1.169961
O      11.39135     13.25980      2.74536        -0.242041     -0.225537     -0.198765
O      11.45832     13.43054     15.34262        -1.244690     -0.156448     -0.222317
O      11.40874      1.79273      6.69768        -0.075065      0.861824     -0.160799
O      11.36067     13.18003      6.85270         0.014587      0.580798     -0.232237
O      11.33708      1.90476     11.12100         0.750606     -0.349173      0.099582
O      11.30167     13.34041     11.07183         1.043124      0.329900      0.210649
O      11.36982      5.60471      2.72730         0.060247     -0.102349     -0.324652
O      11.41516      5.68140     15.41561        -0.704872     -0.059358     -0.613801
O      11.33611      5.80052      6.83846         0.134065     -0.677775     -0.078916
O      11.35206      5.74322     11.07685        -0.276679     -0.207141     -0.086559
O      11.44641      9.59125      2.43064        -1.535759     -0.293582      0.665733
O      11.45061      9.48219     15.21652        -1.138717     -0.131937      0.357655
O      11.36330      9.46484      6.91152         0.102319     -0.175353     -0.662625
O      11.36007      9.42380     11.06624         0.258907      0.244111     -0.166747
O       1.83177      3.79243      2.65646        -0.475191      0.410897     -0.200813
O       1.98844      3.81049     15.26325         0.080806     -0.190998      0.411696
O       2.04544      0.06722      2.57377        -0.200983     -0.138776      0.132447
O       1.83817      0.02878     15.51007        -0.108970      0.546639     -0.321997
O      13.42516      3.78411      2.54096        -0.219785      0.702767      0.189823
O      13.26952      3.78947     15.44595        -0.328855      0.187043     -0.310052
O      13.28741      0.01985      2.71554        -0.326530     -0.160328     -0.052254
O      13.41553     15.18146     15.32218        -0.547473      0.800847      0.206602
O       1.88199      3.74895      6.91348         0.107104      0.375350      0.046974
O       1.82509     15.15401      7.05543         0.217188      0.036395     -0.754023
O      13.22887      3.81087      6.66601        -0.136491     -0.380828      0.515222
O      13.23562     15.14492      6.77036         0.280642      0.574301     -0.151453
O       1.90624      3.69345     11.14340        -0.114423      1.699693     -0.086395
O       1.83663     15.17190     11.13784         0.183757      0.194373     -0.011100
O      13.34762      3.77293     11.17825        -0.955226     -0.225620     -0.310170
O      13.27954     15.19295     11.14099        -0.050306     -0.225044     -0.327401
O       1.97829      7.54896      2.50008         0.709238      0.301249      0.364947
O       1.82774      7.52967     15.48549         0.303928      1.164748     -0.248724
O      13.19229      7.57357      2.57549        -0.097797      0.691172      0.441788
O      13.32730      7.60057     15.31425         0.142723     -0.671736     -0.172713
O       1.80615      7.58602      6.75202         0.981694      0.049958      0.523639
O      13.30984      7.53730      6.85572        -0.233435      0.448023      0.098522
O       1.70000      7.52337     10.98458         0.467289      0.775582     -0.035427
O      13.33954      7.55964     11.11789        -0.319505      0.569855     -0.537195
O       1.71281     11.39387      2.53378         0.491086     -0.275047     -0.008360
O       1.94790     11.45556     15.36256        -0.367347     -0.124568      0.036382
O      13.44138     11.38164      2.50551         0.142536     -0.079691      0.474142
O      13.16860     11.40887     15.31617         0.476808      0.627740      0.172122
O       1.76979     11.39356      6.76881         0.340858      0.900478      0.304947
O      13.30151     11.33492      6.94882         0.044186      0.408687     -0.809965
O       1.86366     11.30557     11.12045         0.148925      0.953100      0.280946
O      13.18121     11.41738     11.06509         0.393515     -0.655549      0.092188
O       5.68599      3.84405      2.59230         0.712589     -1.185226     -0.088819
O       5.57609      3.82425     15.29615         0.461335      0.126665      0.222198
O       5.42554      0.05950      2.69039         0.151176     -0.536577     -0.611162
O       5.77086     15.15850     15.33259         0.050458      1.164256      0.280119
O       5.72159      3.78430      6.87202         0.049363      0.318628      0.036554
O       5.72083     15.15084      7.00869        -0.387724     -0.668631     -0.589284
O       5.64006      3.87345     11.13687        -0.237305     -0.584515     -0.002355
O       5.66354      0.04017     11.20591         0.187428     -1.455736     -0.262348
O       5.55534      7.63035      2.58881         0.208666     -0.805952      0.365789
O       5.58959      7.67728     15.42079         0.525142     -0.587012      0.150103
O       5.71231      7.65370      6.87424        -0.108374     -0.263404     -0.293124
O       5.79924      7.66455     11.09778        -0.696274     -1.282790     -0.065361
O       5.85482     11.37941      2.55866        -0.111104      0.333175      0.261803
O       5.68472     11.41976     15.27273        -0.213463     -0.318026      0.253638
O       5.71664     11.44377      6.84729        -0.050979     -0.039117     -0.160170
O       5.53315     11.28164     11.38881        -0.122674      1.580818     -0.452100
O       9.38531      3.71278      2.61544         0.027468      0.555398     -0.270487
O       9.57418      3.76766     15.24066         0.238115      0.857370      0.787216
O       9.64783     15.16937      2.73875        -0.589720      0.201681     -0.111567
O       9.38717     15.17906     15.24816         0.142086      0.896774      0.485767
O       9.48267      3.78285      7.04233         0.070064     -0.567978     -0.882823
O       9.41009      0.00551      6.67470         0.629819     -0.327221      0.288565
O       9.64702      3.83874     10.89383        -0.876594     -0.551487      0.694847
O       9.38386      0.01764     11.21654         0.193616      0.429898     -0.732129
O       9.46022      7.55108      2.55162         0.938441      1.016203      0.529438
O       9.55222      7.62585     15.18267        -0.192866     -1.027318      0.155747
O       9.38155      7.59890      6.77529         0.182889      0.135850     -0.058080
O       9.48462      7.53794     11.13326        -0.429805      1.508893     -0.177032
O       9.41491     11.38782      2.55103        -0.243794      0.042374     -0.189392
O       9.55986     11.40309     15.41605         0.078032      0.554446     -1.173487
O       9.51182     11.34529      6.90642        -0.334564      0.522085     -0.004280
O       9.49097     11.42754     11.14945        -0.175762     -0.496563     -0.537930
