  # total energy = -7879.57425123 
CRSYTAL
PRIMVEC
    15.2000000000000000    0.0000000000000000    0.0000000000000000
     0.0000000000000000   15.2000000000000000    0.0000000000000000
     0.0000000000000000    0.0000000000000000    17.000000000000000
PRESSURE
7.83979 7.86027 1.61478 -0.040298 0.248247 0.034231
PRIMCOORD
320 1
Pb       3.66163      3.86909      4.25497         0.324477      0.173734      0.408630
Pb       3.89874      3.88753      0.08292        -0.030386      0.078782     -0.625399
Pb       3.61364      0.16466      4.36129         0.715909     -0.535163     -0.086046
Pb       3.91547     15.19682      0.00640        -0.139576     -0.384576     -0.006223
Pb      15.12251      3.91044      4.15448        -0.105630      0.124277      0.686458
Pb       0.07361      3.70269     16.96104         0.088907      0.416651     -0.437827
Pb      15.18217      0.23541      4.36863        -0.356740     -0.319078     -0.138943
Pb       0.05895     15.14402     16.86401        -0.079072     -0.091465      0.714432
Pb       3.90734      3.76535      8.44405        -0.008326     -0.070224      0.304545
Pb       3.79151     15.00420      8.65691         0.283068      0.546825     -0.619413
Pb       0.00848      3.74907      8.59036        -0.079319     -0.036476     -0.206261
Pb      15.04095     15.07815      8.66292         0.085547      0.292621     -0.571114
Pb       3.81523      3.82737     12.67237         0.125640     -0.234783      0.036326
Pb       3.83466     15.15085     12.72991        -0.083574      0.097612      0.198283
Pb       0.01786      3.65840     12.71765         0.132859      0.331652      0.616516
Pb       0.07858     15.16748     12.79976        -0.136618     -0.033547     -0.048253
Pb       3.63270      7.75612      4.31225         0.110286     -0.832075     -0.070707
Pb       3.93201      7.63358      0.03458        -0.303467     -0.389371      0.412120
Pb      15.11886      7.82857      4.21530        -0.083760     -0.795035      0.605606
Pb       0.10122      7.63529     16.85772         0.023733     -0.530417      0.407760
Pb       3.75424      7.59401      8.39203         0.166030     -0.429341      0.072193
Pb      15.06937      7.48583      8.51028        -0.008814      0.455519      0.082182
Pb       3.83596      7.48353     12.57550        -0.357807      0.281094      0.861501
Pb      15.12861      7.37600     12.64781         0.433670      0.617046      0.810560
Pb       3.53450     11.50017      4.31092         0.365716     -0.151733      0.245752
Pb       4.00267     11.40061      0.27062        -0.468411      0.073250     -0.925079
Pb      15.08469     11.54077      4.19673        -0.350384     -0.818546      0.569724
Pb       0.12524     11.42083     16.93440        -0.087057     -0.098385      0.546898
Pb       3.74200     11.38069      8.51703        -0.061327      0.006745     -0.260603
Pb      14.99633     11.40066      8.53210         0.380956     -0.502913      0.290914
Pb       3.75231     11.28975     12.73276        -0.377157     -0.176843     -0.129653
Pb      15.19852     11.14549     12.79523         0.428293      0.585644     -0.182163
Pb       7.56761      3.76354      4.12287         0.216813     -0.044663      1.237174
Pb       7.55119      3.77038      0.00613        -0.056186      0.207478     -0.018164
Pb       7.59991      0.00956      4.20864        -0.460943     -0.094336      0.219169
Pb       7.62975     15.14568      0.01981        -0.466817      0.126471      0.088704
Pb       7.68394      3.84851      8.30082        -0.065535     -0.212312      0.746721
Pb       7.59504     15.08989      8.32601         0.016774      0.420907      1.108139
Pb       7.50846      3.82256     12.74450         0.616966      0.347999     -0.058109
Pb       7.58347      0.02544     12.75234         0.378813     -0.451058     -0.197474
Pb       7.68983      7.67144      4.31773        -0.582898      0.059801     -0.734982
Pb       7.44368      7.70485      0.01410         0.816998     -0.648097      0.045938
Pb       7.56963      7.60829      8.36433        -0.086873     -0.069882      0.510387
Pb       7.49731      7.49279     12.67076         0.701068     -0.046228      0.511799
Pb       7.53435     11.38716      4.22428         0.085072     -0.150931     -0.004472
Pb       7.67116     11.41303      0.02011        -0.564168     -0.261452     -0.215571
Pb       7.51272     11.51924      8.43435         0.008832     -0.671483      0.415201
Pb       7.43745     11.24019     12.68357         0.748921      0.126884      0.168952
Pb      11.43874      3.68791      4.11232         0.200096      0.551243      0.431580
Pb      11.42909      3.68649      0.00028        -0.315447      0.001929     -0.121241
Pb      11.46513      0.01844      4.15614         0.007645     -0.245659      0.070696
Pb      11.49112     15.10175     16.90863        -0.502944      0.474680     -0.145247
Pb      11.37383      3.80654      8.44384        -0.117045      0.033725      0.417614
Pb      11.25349     15.18176      8.40055         0.272149     -0.005431      0.492828
Pb      11.38585      3.77902     12.80639        -0.417419     -0.143384      0.053493
Pb      11.40179     15.09249     12.78494        -0.079661      0.581032      0.046284
Pb      11.42295      7.78772      4.10952         0.522562     -0.799554      0.504135
Pb      11.31350      7.52505     16.91916        -0.249233     -0.229269      0.611477
Pb      11.27106      7.49357      8.47222         0.337636      0.458790      1.090701
Pb      11.30156      7.42509     12.78326        -0.219731      0.163506      0.111796
Pb      11.41948     11.37447      4.12275         0.160489      0.021059      0.225298
Pb      11.38144     11.47112     16.95469        -0.036781     -0.259113      0.110522
Pb      11.27801     11.49171      8.49715         0.035134     -0.662818      0.545815
Pb      11.39234     11.35491     12.76751        -0.250022     -0.380389     -0.103808
Ti       1.88387      1.93851      2.15431         0.399933     -0.485508      0.437944
Ti       2.04788      1.78913     15.00920        -0.057500      1.248980     -0.802195
Ti       1.72015     13.36017      2.36616         0.928251      0.480277     -1.358974
Ti       1.94730     13.20031     14.95955         0.994208      0.691884     -0.157627
Ti      13.37012      1.83696      2.17177        -0.838453     -0.358060     -0.497619
Ti      13.38151      1.86449     15.05598        -0.716639      0.294200     -0.733599
Ti      13.18591     13.27054      2.11956         0.498896     -0.201139      0.081630
Ti      13.37387     13.18675     14.93038        -1.090916      0.975412     -0.563647
Ti       1.88925      1.84358      6.68270        -0.288848      0.033738      0.881281
Ti       1.79356     13.31183      6.58300         0.294601     -0.785632     -0.055020
Ti      13.28437      1.91296      6.57001         0.573957     -0.138184     -0.630250
Ti      13.20254     13.26370      6.50096         0.428627      0.249661     -0.259784
Ti       1.95234      1.82354     10.77042         0.220539      0.378172     -0.602234
Ti       1.84490     13.28158     10.73795         0.030721     -1.961625      0.120450
Ti      13.25147      1.85128     10.76046        -0.116660      0.048424     -0.279366
Ti      13.26767     13.28988     10.86175         0.551343     -0.776894     -0.795509
Ti       1.85659      5.69597      2.23035         0.225643      1.660141     -1.094351
Ti       1.89380      5.67744     14.96817         0.799094     -0.881938     -0.126160
Ti      13.30642      5.65417      2.15210        -0.498020      0.594746      0.142880
Ti      13.34748      5.69699     15.05653        -0.527896     -1.030948     -1.156988
Ti       1.83796      5.61506      6.49146         0.372764      0.939480     -0.265589
Ti      13.26242      5.70271      6.56314         0.076537      0.138819     -1.783981
Ti       1.87803      5.67553     10.74945         0.448789     -0.654961     -0.548820
Ti      13.27951      5.59645     10.80209        -0.587489      0.934611     -1.044681
Ti       1.85948      9.51427      2.25929         0.147198     -0.202912      0.508467
Ti       1.92637      9.49792     15.01010         1.364076     -0.427215     -2.163835
Ti      13.33208      9.44258      2.04943         0.050348      1.212792     -0.261595
Ti      13.32963      9.44424     14.95518         0.256365      0.097148      0.907387
Ti       1.81518      9.47397      6.62599        -1.197555      0.379028     -0.817243
Ti      13.15164      9.46836      6.59837         1.282273      0.362086     -0.980869
Ti       1.81240      9.44204     10.64760         0.922801      0.912709      0.519887
Ti      13.23637      9.43540     10.78038        -0.129046     -0.144418     -1.587029
Ti       5.61790      1.85641      2.33024         0.437924     -0.209875     -0.895982
Ti       5.74142      1.86078     14.91992         0.509234      0.086704      0.311693
Ti       5.53643     13.31819      2.34859         0.988856      0.210274      1.335765
Ti       5.66691     13.23835     14.96307         0.057410     -0.002647      0.713835
Ti       5.70229      1.82747      6.52457         0.108065     -0.412006     -0.025371
Ti       5.61061     13.24959      6.38973        -0.057572     -0.220349     -0.721415
Ti       5.78390      1.82240     10.75009        -0.709868      0.798380     -1.362034
Ti       5.67530     13.21386     10.81145         1.280202      0.247324     -0.882572
Ti       5.68603      5.68662      2.40845        -0.295602      1.467609     -1.374318
Ti       5.67466      5.67687     14.98592         0.253696     -0.278230     -0.388774
Ti       5.69517      5.64751      6.39696         0.069349      0.062525      0.117594
Ti       5.71601      5.63728     10.55442         0.180669      0.293487     -0.379907
Ti       5.66436      9.51444      2.37940         0.333808     -0.512752     -0.038971
Ti       5.70937      9.48541     15.02560        -0.249483      0.560076     -0.145290
Ti       5.61332      9.45963      6.40762         0.831629      0.324864     -0.168445
Ti       5.59200      9.38973     10.67647         0.987298      0.052558     -1.161897
Ti       9.46613      1.81927      2.22549         0.103141      0.217709     -0.833435
Ti       9.44524      1.84606     14.95975         0.669488      0.759915      0.584701
Ti       9.39777     13.23467      2.24382         0.302683      0.034237     -0.638881
Ti       9.44397     13.25606     14.93090        -0.162507      0.232975     -0.816455
Ti       9.51783      1.91255      6.40101        -0.104577      0.391889     -0.386245
Ti       9.43891     13.28491      6.37117         0.383957     -0.234208      0.365226
Ti       9.49352      1.83639     10.77340         0.149015      0.536636     -0.155445
Ti       9.54026     13.24422     10.77335        -1.874410      0.048366     -1.100862
Ti       9.49867      5.60823      2.26804         0.676397      1.196766     -0.999241
Ti       9.48081      5.60807     15.12843        -0.844278      1.033071     -1.377940
Ti       9.54582      5.74645      6.25150        -0.293138     -1.011334      1.826122
Ti       9.49089      5.62939     10.70007        -0.449091     -0.626776     -0.114756
Ti       9.53773      9.46730      2.19779        -0.434999      0.239010     -0.930643
Ti       9.61162      9.47182     15.07095        -2.475571     -1.048167     -1.485342
Ti       9.44145      9.51145      6.57455         0.077627      0.415261     -0.817317
Ti       9.50069      9.43568     10.83964        -0.361875     -0.679723     -1.571581
O       2.10070      1.89617      0.41368        -0.633304     -0.133546      0.025228
O       2.04013      1.80149     13.18642        -0.313856     -0.195439      0.498166
O       1.82870     13.40437      0.58349        -0.030529     -0.330900      0.214302
O       1.87495     13.33911     13.17367         0.236531     -0.637127      0.809044
O      13.36857      1.69692      0.39114        -0.138471      0.800227      0.146564
O      13.32498      1.83319     13.27809         0.133429      0.065840     -0.054375
O      13.11780     13.23440      0.30691         0.476959      0.104303      0.188578
O      13.34234     13.12656     13.10601        -0.368971      0.757861      0.601801
O       1.92303      1.88706      4.89991        -0.287623     -0.024663     -0.570248
O       1.78669     13.19893      4.76647         0.045077      0.875596     -0.234128
O      13.31932      1.90044      4.70968         0.039621     -0.068752      0.598727
O      13.13488     13.35938      4.71660         0.490721     -0.352457      0.287279
O       1.83258      1.78255      8.94668         0.291168      0.170606      1.312959
O       1.84559     13.17389      8.94369         0.267875      0.697266      0.267582
O      13.25784      1.83687      8.94724         0.175784     -0.044821      0.990248
O      13.24774     13.34621      9.03566         0.070995     -0.418987      0.037670
O       1.88789      5.70150      0.40034        -0.146873      0.001645      0.755899
O       1.78258      5.58746     13.18131         0.633819     -0.016632     -0.326749
O      13.21263      5.64717      0.38009         0.553942      0.098274     -0.136177
O      13.35642      5.70339     13.19987         0.028993     -0.228911      0.651307
O       1.89624      5.71677      4.69531        -0.158562     -0.491530      0.289336
O      13.29931      5.78484      4.73858        -0.087701     -0.508348      0.806875
O       1.75098      5.62950      8.98036         0.357027      0.147211     -0.016256
O      13.26354      5.67454      8.97439         0.191219     -0.247815      0.710735
O       1.92628      9.45097      0.50293        -0.541545      0.228804     -0.692881
O       1.93369      9.65133     13.14969         0.128996     -0.325806      1.447677
O      13.48222      9.60490      0.26662        -0.321617     -0.488129      0.342488
O      13.37855      9.40623     13.22677        -0.155469      0.145687     -1.387162
O       1.75944      9.42711      4.76218         0.346435      0.384377      0.657754
O      13.33122      9.53008      4.74774        -0.548601     -0.269314      0.674855
O       2.01358      9.47799      8.86763        -0.363924     -0.192220     -0.053028
O      13.27038      9.54342      8.97189        -0.140063     -0.437313      0.722714
O       5.60596      1.80196      0.50353         0.166602      0.390972      1.140648
O       5.77473      1.94205     13.12287        -0.181327     -0.125475      0.425452
O       5.66984     13.33693      0.59907        -0.090763      0.060712     -1.099192
O       5.63180     13.03960     13.22037         0.327340      0.606842     -1.156262
O       5.75535      1.81601      4.73217        -0.370905      0.152619      0.373618
O       5.59103     13.19366      4.58766         0.230992      0.104771      0.951900
O       5.69840      1.81851      8.92994         0.255704     -0.252965      0.736944
O       5.77789     13.27090      8.99459        -0.567421      0.180062      0.410328
O       5.66627      5.67779      0.47238        -0.033711     -0.022877      1.832000
O       5.64768      5.61966     13.14987        -0.111821      0.174525      1.118657
O       5.71253      5.77458      4.62923        -0.034889     -0.495280     -0.477831
O       5.88771      5.64103      8.76531        -0.750124      0.135887      0.117147
O       5.59591      9.47688      0.53953         0.235867     -0.043482      0.235400
O       5.59056      9.55998     13.22484         0.204100     -0.206702      0.353633
O       5.80865      9.53352      4.56864        -0.473754     -0.052411      1.118622
O       5.73046      9.34941      8.83667        -0.551282      0.182984      1.214342
O       9.32477      1.94666      0.44120         0.691777     -0.162388      1.063180
O       9.37454      1.89642     13.18853         0.311792     -0.376861      0.135729
O       9.40321     13.17073      0.40042         0.290615      0.195003      0.436770
O       9.50945     13.29674     13.09670        -0.125199     -0.127709      1.061378
O       9.50341      1.97831      4.58920         0.169561     -0.695811      0.404652
O       9.50236     13.34458      4.62163         0.038175     -0.254114     -0.586414
O       9.61780      1.83327      8.98532        -0.179792      0.148390      0.310880
O       9.53691     13.27834      8.87183        -0.086751     -0.043828      1.184673
O       9.61883      5.61893      0.41606        -0.292401      0.010786      0.877987
O       9.40457      5.62078     13.25957         0.266375      0.205491      1.085012
O       9.55860      5.71759      4.49655         0.134213      0.352269      0.496269
O       9.58354      5.52939      8.87899        -0.481134      0.320073      1.345978
O       9.53361      9.44759      0.39231         0.040472      0.546737      0.092045
O       9.46214      9.32403     13.24804         0.411042      0.357247      0.498313
O       9.46771      9.53649      4.75735         0.340335     -0.401175      0.157129
O       9.48441      9.44236      8.99971        -0.179456      0.019906      0.580560
O       3.75003      1.96836      2.69497        -0.429461     -0.116840      0.090991
O       3.95855      1.74118     15.32784        -1.700867     -0.043480     -0.045330
O       3.72818     13.28265      2.65068        -0.885453      0.064644      0.112413
O       3.81227     13.35707     15.40276        -0.468966      0.062414     -0.131683
O      15.19766      1.88453      2.59123         1.260887      0.147811      0.116408
O       0.10247      1.91205     15.38853        -0.264507     -0.152593     -0.129678
O      15.05797     13.16691      2.50507         0.234741      0.922527      0.263455
O       0.01852     13.19029     15.31764        -0.038401      0.148473     -0.002209
O       3.80778      1.80705      7.02010         0.077872     -0.212621     -0.620867
O       3.79034     13.24049      6.90746        -0.206673      0.461035     -0.058666
O      15.14100      1.89147      6.92663         1.024066     -0.445390     -0.020010
O      15.15295     13.18012      6.94843        -0.965630      0.611217     -0.344790
O       3.86909      1.73428     11.10425        -0.744142      0.192915     -0.165180
O       3.82519     13.37130     11.05266        -0.223222     -0.164023     -0.113959
O       0.04211      1.91806     11.15971        -0.328285     -0.653599     -0.398386
O      15.16717     13.22994     11.11865         0.004874      0.123630     -0.226089
O       3.75154      5.79337      2.61652         0.670966     -0.743536      0.133618
O       3.81945      5.85825     15.41648        -0.655985     -0.829678     -0.408150
O      15.16891      5.81697      2.61881         0.335958     -0.700479     -0.283799
O       0.06162      5.52559     15.39434        -0.633346      0.367230      0.211501
O       3.84123      5.59842      6.75392        -0.842477     -0.148447      0.355460
O      15.13881      5.76212      6.80872         0.954776     -0.238154      0.360197
O       3.79180      5.71353     10.95092        -0.522270     -0.042643      0.226202
O      15.16089      5.51479     11.10526         0.615812      0.126291     -0.023439
O       3.72209      9.50090      2.70671         0.609920      0.753005     -0.202581
O       3.79780      9.40593     15.47106        -0.013335      0.061224     -0.363489
O      15.16693      9.60024      2.62518         0.107724     -0.287980     -0.419451
O       0.07878      9.75017     15.15783        -0.903185     -0.642221      0.834835
O       3.74460      9.47141      6.82250         0.685185     -0.060132     -0.201694
O      15.13649      9.37874      6.98838         0.660699      0.368014     -0.275673
O       3.74929      9.42402     11.09815         0.440795      0.031187     -0.337084
O       0.01507      9.57231     11.06213        -0.502226     -0.242840     -0.113339
O       7.52288      1.88580      2.57507         1.115580     -0.208191      0.103735
O       7.58947      1.99065     15.38928        -0.255970      0.015466     -0.089892
O       7.56636     13.40511      2.66296         0.352423     -0.437305     -0.254706
O       7.54316     13.12634     15.34307         0.882372      0.340580     -0.035812
O       7.68056      1.86987      6.94507        -0.237848     -0.286440     -0.868703
O       7.57730     13.29746      6.80417        -0.145456     -0.189387     -0.430250
O       7.60762      1.95274     11.14465         0.125759     -0.144889     -0.194754
O       7.63276     13.17602     10.99414        -0.494802     -0.157425      0.640199
O       7.64596      5.77018      2.65131        -0.379670     -0.122854     -0.338301
O       7.54714      5.64411     15.39281         0.287892     -0.230736      0.068760
O       7.60940      5.62320      6.76597         1.117129      0.532495     -0.775201
O       7.51667      5.70154     11.08346         1.119535     -0.431581     -0.223409
O       7.68893      9.56446      2.59688        -0.760418     -0.462389     -0.023538
O       7.59185      9.52617     15.33759        -0.432651      0.396995      0.323180
O       7.52106      9.48834      6.80447         0.045427     -0.733217     -0.042554
O       7.57356      9.35777     11.18155        -0.566191      0.318278     -0.366694
O      11.46687      1.95369      2.52755        -0.828678     -0.199259     -0.211360
O      11.37317      1.88534     15.38157         0.254033     -0.503512     -0.148713
O      11.36858     13.29182      2.53499         0.051028      0.143872      0.130222
O      11.33138     13.37708     15.19788         0.571623      0.058197      0.288895
O      11.44212      1.95008      6.94294        -0.925078     -0.291669     -0.783091
O      11.33146     13.10888      6.78780         0.243878      0.568504      0.013979
O      11.37552      1.82785     11.25482         0.275785     -0.110395     -0.275095
O      11.38857     13.37078     11.06554        -0.207660     -0.331358      0.587322
O      11.44300      5.64439      2.53544         0.261124     -0.204236      0.183156
O      11.40803      5.83378     15.23880         0.209085     -0.451718      0.258306
O      11.39638      5.69085      6.88942        -0.624011     -0.323872     -0.659428
O      11.37136      5.63381     11.17425         0.426012      0.115093     -0.141744
O      11.45580      9.55516      2.46460         0.265883     -0.194486      0.267100
O      11.44394      9.36364     15.24434         0.241631      0.156213      0.317312
O      11.31878      9.39670      6.94850        -0.377385      1.009822     -0.341281
O      11.40745      9.23855     11.18371        -0.763371      0.329805      0.172527
O       1.91032      3.84938      2.54202        -0.366879     -0.970339      0.265309
O       2.05382      3.68095     15.26825         0.112547      0.709792      0.474994
O       1.88185      0.08606      2.74697        -0.271428     -0.224914     -0.150910
O       1.82349     15.13754     15.39862         0.459403     -0.286272     -0.450268
O      13.42748      3.73181      2.53668        -0.287130      0.998986     -0.140439
O      13.35153      3.77445     15.37137        -0.461200     -0.073550      0.286989
O      13.36303     15.17799      2.58397        -0.382259     -0.290709      0.129435
O      13.34466     15.18490     15.36224         0.110217     -1.097014     -0.395330
O       1.95384      3.76003      6.97697        -0.584975      0.063277     -0.226081
O       1.85874     15.11625      7.04516        -0.028072      0.835114     -0.525051
O      13.42020      3.79894      6.95534        -0.736048      0.222425     -0.430760
O      13.27711     15.16452      6.85132        -0.095482     -0.416574      0.006249
O       2.03354      3.73051     11.13014        -0.452296     -0.292724     -0.366271
O       1.90058     15.07368     11.26058        -0.229359      1.766936     -0.790173
O      13.24094      3.72355     11.16087         0.075854     -0.095053     -0.073432
O      13.27040     15.18773     11.12778         0.461365     -0.079947      0.274288
O       1.96478      7.61137      2.57628        -0.872842      0.640906      0.108253
O       1.74378      7.55083     15.05466        -0.121563      1.064399      0.979776
O      13.34139      7.62245      2.49396        -0.392502     -0.065348     -0.245376
O      13.39109      7.54186     15.31674         0.789752      1.044710      0.269128
O       1.92067      7.51951      6.86294         0.156224      0.148936      0.094418
O      13.18106      7.65993      6.99576         0.453233     -1.939389     -0.205944
O       1.90874      7.58251     11.10631        -0.649496     -0.457601     -0.306674
O      13.44233      7.55664     11.07154        -0.283967     -1.042755     -0.023492
O       1.80382     11.50310      2.70345         0.420405     -1.556769     -0.276682
O       2.05699     11.38196     15.43927        -0.189985      0.414529     -0.031704
O      13.22109     11.37947      2.51951         0.084537      0.277054     -0.043343
O      13.22288     11.38918     15.19524        -0.355165     -0.331781      0.346082
O       1.91185     11.44048      6.86391        -0.023850     -1.597398      0.115509
O      13.27925     11.31289      6.95683        -0.272769      1.473741     -0.347992
O       1.97807     11.38435     11.05122        -0.005283     -0.108177     -0.062160
O      13.06175     11.27965     11.06052         0.487247      1.450058      0.434356
O       5.70163      3.81677      2.76918        -0.491164     -0.247845     -0.812488
O       5.69136      3.77421     15.40349        -0.637345     -0.077678     -0.220283
O       5.63308      0.01792      2.80441        -0.282208      0.237524     -0.582983
O       5.79971     15.13337     15.38176         0.297387      0.371531     -0.452706
O       5.74116      3.68012      6.75837        -0.194198      0.803898      0.136493
O       5.76629     15.07747      6.77378        -0.315571      0.961106      0.219626
O       5.61871      3.87047     10.93779        -0.015208     -2.252679      0.499062
O       5.81200     15.19583     11.22378        -0.124806     -1.114981     -0.398842
O       5.74081      7.63223      2.66492        -0.024503     -0.194031     -0.114065
O       5.73984      7.57694     15.36080         0.093300      0.556221     -0.008602
O       5.63596      7.52201      6.70614         0.259622      1.108932      0.159847
O       5.62243      7.51398     11.04186         0.180436      0.816548      0.034064
O       5.74504     11.41368      2.50958        -0.253836     -0.206217      0.241815
O       5.62257     11.40843     15.50862        -0.228402     -0.817176      0.038806
O       5.65513     11.37607      6.79424         0.198850     -0.499209      0.098665
O       5.67495     11.28934     11.01769        -0.124494      0.291592      0.047294
O       9.45798      3.78989      2.67099         0.247406     -0.663795     -0.744291
O       9.57640      3.77755     15.44001        -0.213657     -0.301695     -0.202562
O       9.61916     15.12900      2.40089        -0.472398      1.329411      0.514763
O       9.26404      0.03325     15.38547         0.859806     -1.396422     -0.540482
O       9.55101      3.79933      6.69254         0.048025      0.398388     -0.044949
O       9.56828      0.00753      6.66555         0.084751     -0.400296      0.294493
O       9.51287      3.74993     11.22977        -0.065688      0.161248     -0.558218
O       9.38618     15.12198     11.07859         0.309936      0.603111      0.236168
O       9.70224      7.64618      2.54984        -0.872881     -0.867064      0.008782
O       9.31479      7.57669     15.51235         1.025077      0.036505     -0.292454
O       9.57551      7.56212      6.90881        -1.109013     -0.425157     -1.099489
O       9.44191      7.44980     11.08454         0.163439      0.562332      0.183230
O       9.58806     11.38442      2.57180        -0.407411      0.189308      0.042540
O       9.55591     11.39007     15.31702         0.157649     -0.267098     -0.031442
O       9.30845     11.38228      6.81058         0.825650      0.119656      0.056030
O       9.52749     11.28682     11.09296         0.529190      0.720175      0.227412
