  # total energy = -7884.54026385 
CRSYTAL
PRIMVEC
    15.3600000000000000    0.0000000000000000    0.0000000000000000
     0.0000000000000000   15.3600000000000000    0.0000000000000000
     0.0000000000000000    0.0000000000000000    17.440000000000000
PRESSURE
1.76317 1.81734 -0.89545 -0.197589 -0.217664 0.029537
PRIMCOORD
320 1
Pb       3.86199      3.76260      4.27808         0.088809      0.107694      0.755111
Pb       3.73756      3.80244     17.42478         0.622613      0.105729     -0.251491
Pb       3.79876     15.28283      4.30684         0.560577      0.141673      0.654055
Pb       3.74111     15.25758     17.33492         0.414905      0.082158      0.561770
Pb       0.03744      3.76998      4.25280        -0.193207      0.343548      0.488852
Pb      15.32327      3.81358     17.34084        -0.045665     -0.357630      0.448478
Pb       0.00184      0.00587      4.31826         0.155864     -0.363126      0.087134
Pb       0.07338     15.34113     17.36043        -0.361946     -0.347999      0.369714
Pb       3.80696      3.77689      8.72237         0.554165      0.588916      0.290727
Pb       3.83703      0.02904      8.49674         0.083069     -0.407670      1.534274
Pb       0.09409      3.87597      8.71914        -0.574433      0.158594      0.510101
Pb      15.28395     15.30924      8.70122         0.173301      0.194956      0.097953
Pb       3.81920      3.84528     13.07005         0.101281     -0.320095     -0.544834
Pb       3.84620      0.10208     13.00161         0.143043     -0.187238      0.557259
Pb       0.03267      3.83959     13.02309        -0.120112     -0.321809     -0.090410
Pb      15.31825     15.28750     13.08459        -0.128797     -0.083377      0.057727
Pb       3.80520      7.64717      4.34979        -0.228652      0.357049      0.345312
Pb       3.87648      7.61394     17.32537        -0.304650      0.296367      0.575437
Pb      15.28283      7.74793      4.29779         0.544211     -0.458205      0.120222
Pb      15.31063      7.54649     17.43642         0.358652      0.609603     -0.031516
Pb       3.72479      7.73617      8.60596         0.633143      0.018681      0.484300
Pb      15.35618      7.71148      8.62896        -0.067574     -0.168509      0.575827
Pb       3.86619      7.64033     12.95562         0.061608     -0.056284      0.646241
Pb      15.28021      7.60427     13.02837        -0.242844      0.360827      0.272849
Pb       3.93304     11.50650      4.36396        -0.852910     -0.277762      0.090873
Pb       3.70794     11.63425     17.38322         0.091761     -0.764903      0.513676
Pb      15.23317     11.41730      4.41817         0.518282      0.704002     -0.671565
Pb      15.33150     11.53085     17.39581        -0.030114     -0.233374     -0.263877
Pb       3.90812     11.46303      8.64012        -0.411154     -0.016307      0.192734
Pb      15.30776     11.57101      8.70506         0.105166     -0.153962     -0.297022
Pb       3.79582     11.46892     13.04012         0.075599      0.417270      0.030960
Pb       0.01647     11.51718     12.96736        -0.289187      0.110128      0.604648
Pb       7.65022      3.82163      4.26202        -0.048318     -0.453173      0.141674
Pb       7.56260      3.76076      0.05731        -0.009943      0.092213     -0.356311
Pb       7.65383     15.23236      4.40069        -0.053683      0.311556     -0.221725
Pb       7.75653     15.34294     17.42517        -0.468609      0.095190     -0.137372
Pb       7.66200      3.87623      8.60799        -0.210510     -0.336773      0.242101
Pb       7.64465      0.07114      8.71812        -0.043852      0.060822     -0.193354
Pb       7.70949      3.84659     12.92941        -0.087198     -0.290944      0.876624
Pb       7.60547     15.35604     13.02230         0.036332      0.589822      0.318879
Pb       7.75233      7.68123      4.36565        -0.193455      0.046423      0.057817
Pb       7.57355      7.75400     17.36469         0.180809     -0.701685      0.448449
Pb       7.77260      7.55574      8.68530        -0.874188      0.548796      0.678104
Pb       7.73916      7.73010     13.05709        -0.346999     -0.210226      0.326467
Pb       7.65111     11.50802      4.32793         0.206894     -0.266372      0.534899
Pb       7.66215     11.42826     17.38425         0.305644      0.158969      0.146211
Pb       7.63166     11.59450      8.64262         0.280928     -0.357447      0.748430
Pb       7.58798     11.45228     12.95843         0.333967      0.034931      0.272633
Pb      11.44424      3.88378      4.26865         0.314050     -0.259445      0.124682
Pb      11.55027      3.83220     17.41730         0.009143     -0.274181      0.668143
Pb      11.55908     15.26370      4.42683        -0.225071      0.602591     -0.453003
Pb      11.45095     15.33750      0.09685         0.135575     -0.126015     -0.631431
Pb      11.45027      3.73747      8.65195         0.284975      0.985571      0.289470
Pb      11.50785      0.09584      8.71481         0.024447     -0.383596     -0.062527
Pb      11.54842      3.78147     12.99474         0.119713      0.237235      0.346033
Pb      11.55104      0.01015     13.04536         0.083369     -0.332261     -0.104394
Pb      11.48649      7.59964      4.34444        -0.346574      0.396062     -0.405861
Pb      11.51536      7.73742     17.36302        -0.235399     -0.402610      0.553654
Pb      11.53291      7.71000      8.65116         0.089005     -0.581902      0.415423
Pb      11.51558      7.59052     13.13065        -0.014289      0.034779     -0.099999
Pb      11.50264     11.56444      4.21814         0.034510     -0.667768      0.821627
Pb      11.47088     11.46972     17.40192        -0.093990      0.106176     -0.111818
Pb      11.57448     11.50595      8.56230        -0.632315      0.052785      0.766568
Pb      11.55920     11.52603     13.08137        -0.353432      0.165592      0.290831
Ti       1.95243      1.89401      2.32927         0.004414     -1.005295     -0.147142
Ti       1.92879      1.89925     15.41147        -0.140527     -0.456720     -0.847671
Ti       1.92663     13.40987      2.39537        -0.362836     -1.091730     -1.147345
Ti       1.91876     13.38166     15.40175        -1.199281     -0.309326     -0.741828
Ti      13.42166      1.88850      2.40063        -0.063077      0.415869     -1.112561
Ti      13.45923      1.84038     15.38972         0.094951      0.055453     -0.793837
Ti      13.42949     13.46473      2.33853         1.004368     -0.565549     -1.147212
Ti      13.34546     13.47785     15.50428         0.742272     -1.384591     -0.561988
Ti       1.89726      1.97852      6.82578        -0.020505     -0.674064     -0.400265
Ti       1.86123     13.49020      6.75733         0.809319     -0.461651     -0.823566
Ti      13.44949      1.94403      6.71545        -0.383511     -0.699074     -1.876259
Ti      13.38744     13.44422      6.67964         0.609229     -0.182146     -0.279342
Ti       1.88654      1.78096     11.04693         0.748328      1.741001     -0.691780
Ti       1.93285     13.45093     11.00426        -0.502090     -0.104516      0.764539
Ti      13.50590      1.88931     11.02734        -0.307680      0.160468     -0.025530
Ti      13.39968     13.40498     10.98622        -0.219435      0.633079      0.055950
Ti       1.92208      5.73663      2.37091        -0.388074      0.465676      0.354993
Ti       1.99002      5.74404     15.34610        -0.987538     -0.439415     -0.143200
Ti      13.45404      5.79402      2.43175        -0.568966     -0.351048     -0.780285
Ti      13.43076      5.67652     15.49255        -0.782217     -0.066485     -1.225641
Ti       1.87511      5.78197      6.77479         0.917595      0.469352     -1.147287
Ti      13.44641      5.70083      6.64422        -0.587207      0.186163     -0.266997
Ti       1.89355      5.77331     11.07456         0.392196     -1.190301     -0.195683
Ti      13.40218      5.76576     11.05899        -0.213134     -0.519698     -1.632409
Ti       1.84402      9.54462      2.35262         0.521551      0.773306     -0.029899
Ti       1.87134      9.54546     15.31194        -0.551157      0.090352      1.896314
Ti      13.39002      9.64188      2.32167        -0.598376     -0.335395     -1.688133
Ti      13.38428      9.55220     15.49280         0.437766      0.941645     -0.779039
Ti       1.79897      9.67792      6.62976         1.966856     -0.855317     -0.288335
Ti      13.41106      9.53173      6.70899        -0.336273      0.468823     -0.169589
Ti       1.87812      9.56067     11.03950        -0.190751     -0.381673     -0.541781
Ti      13.37279      9.60816     11.06975         0.106647     -0.540291     -0.665162
Ti       5.75513      1.94039      2.26140         0.699493     -1.319767     -0.062984
Ti       5.74048      1.85348     15.49380         0.713525      0.120071      0.539592
Ti       5.75043     13.39281      2.36232         0.129234      0.778911     -0.222868
Ti       5.80953     13.41435     15.42816        -0.491271      0.780757     -1.343286
Ti       5.76481      1.88790      6.66303         0.273211      0.541397      0.372057
Ti       5.72386     13.39087      6.74249         0.286237      0.314975     -0.491266
Ti       5.77202      1.98273     10.97238        -0.217651     -0.327871     -0.133305
Ti       5.63634     13.46304     11.06247         1.210741     -0.019896     -0.985862
Ti       5.70745      5.80274      2.40575         0.411959     -0.288029     -1.106436
Ti       5.71687      5.70106     15.33969         1.176455      0.048888     -0.228321
Ti       5.70043      5.72666      6.67659        -0.271456      0.206508     -0.285417
Ti       5.76161      5.78385     11.06619        -0.130040     -0.278523     -0.893480
Ti       5.69069      9.57776      2.37948        -0.443794      0.159291     -0.394446
Ti       5.64472      9.63835     15.43829         0.265402     -0.914856     -1.035846
Ti       5.74986      9.55759      6.67994        -0.758117     -0.671761     -0.320514
Ti       5.67264      9.53063     11.02775         1.124068      0.689331     -0.301316
Ti       9.61697      1.78961      2.30879        -0.480433      0.797704      0.097545
Ti       9.66074      1.95696     15.49551        -1.485824     -0.671133     -0.958566
Ti       9.58773     13.36856      2.38315        -0.059417      0.078101     -1.140088
Ti       9.56669     13.41275     15.37377         0.590904     -0.539677      0.167396
Ti       9.59175      1.93639      6.59200        -0.607032      0.034996     -0.636509
Ti       9.59475     13.50982      6.75804        -0.684245     -1.306458     -1.165804
Ti       9.66218      1.86672     10.99924        -1.008615      0.627842     -0.531269
Ti       9.50744     13.45587     11.05402         1.051723     -0.784589     -0.487921
Ti       9.52725      5.68948      2.29739         0.862208      0.621692      0.412067
Ti       9.51276      5.70449     15.54846         0.281120     -0.041788     -1.353359
Ti       9.55630      5.78957      6.65233         1.052839     -0.402341     -0.796600
Ti       9.54129      5.71383     11.10985         0.689463      0.458606      0.592308
Ti       9.51550      9.57927      2.31590         0.555991     -0.821881     -1.190563
Ti       9.53472      9.51468     15.40096        -0.038393      0.963244     -0.161834
Ti       9.53064      9.58858      6.80988        -0.117628      0.394452     -1.558636
Ti       9.60754      9.57332     11.11215        -0.515001      0.229115     -0.159902
O       1.97431      1.69375      0.58114        -0.083009      0.732353     -0.368762
O       1.96346      1.90864     13.64688        -0.227467     -0.055019      0.183135
O       1.95055     13.42656      0.53118        -0.013630     -0.304521      1.171855
O       1.95760     13.37347     13.64842        -0.203296     -0.199937     -0.746973
O      13.56209      1.91295      0.61314        -0.442376     -0.244309      0.919357
O      13.48611      1.86501     13.58312        -0.143286     -0.021196      0.345133
O      13.43999     13.38349      0.54985        -0.131029      0.269526      0.321213
O      13.24248     13.45098     13.72929         0.224985      0.190599     -0.412469
O       1.92906      2.00746      5.09211         0.070592     -0.152415     -0.797734
O       1.85998     13.47240      5.01346         0.104863      0.181981     -0.606140
O      13.33731      1.84893      4.84069         0.284858     -0.049058      1.475533
O      13.51672     13.36353      4.88804        -0.364300      0.368359      0.532587
O       1.88580      1.85181      9.24675        -0.147155      0.090867      0.215929
O       1.91683     13.57069      9.27613        -0.314493     -0.483694     -0.488329
O      13.42566      1.83826      9.23100         0.016689      0.081975      0.091684
O      13.39543     13.48711      9.20868         0.293076     -0.171470     -0.119423
O       1.89629      5.68403      0.64281         0.140569      0.022633     -0.686375
O       2.02853      5.62113     13.57114        -0.389421      0.461918      0.176341
O      13.40464      5.80186      0.65523         0.260809     -0.312923     -0.529355
O      13.43224      5.62111     13.69885        -0.032365      0.038641      0.558125
O       1.84594      5.75415      5.00733         0.252198     -0.160328     -0.086890
O      13.49545      5.71635      4.84552        -0.205286      0.164712      0.875061
O       1.86300      5.83744      9.31718        -0.190347     -0.193373     -0.298598
O      13.43717      5.72805      9.24513        -0.072285      0.257531      0.911387
O       1.75933      9.55647      0.62550         0.451063      0.042798     -0.631431
O       1.86293      9.56258     13.58699         0.051701      0.022260     -1.099812
O      13.19902      9.59598      0.48459         0.651964     -0.160070      0.917841
O      13.36281      9.61030     13.73404         0.137110     -0.173123     -0.413478
O       1.92530      9.44775      4.87687        -0.749260      0.633356      0.312377
O      13.46595      9.70309      4.97043        -0.058545     -0.220240     -0.671455
O       1.89849      9.42443      9.23825        -0.455914      0.748060      1.366680
O      13.37924      9.54557      9.26460         0.121709      0.071331      0.437706
O       5.73190      1.81054      0.47356        -0.323647      0.619201      1.052930
O       5.72659      1.85159     13.75942         0.117251     -0.155806     -1.394699
O       5.66318     13.27330      0.62693         0.176485      0.357598     -0.711541
O       5.68259     13.48221     13.61531         0.209214     -0.011039      0.846366
O       5.77299      1.88933      4.92829         0.122401      0.027049     -0.411931
O       5.73941     13.32845      4.97033         0.300127      0.160478      0.025079
O       5.83703      1.96514      9.19347        -0.191833      0.030894      0.448826
O       5.72379     13.42242      9.27344         0.203169      0.174814      0.182043
O       5.60717      5.75019      0.61293         0.253326      0.009147      0.638014
O       5.81088      5.68575     13.55466        -0.505766      0.088275      0.850260
O       5.71842      5.70884      4.89372        -0.098557      0.019301      0.426258
O       5.80444      5.71402      9.30591         0.019346      0.070243     -0.431456
O       5.68197      9.63688      0.59883         0.112581     -0.408785      0.193677
O       5.70662      9.47503     13.66844        -0.227979      0.771983      0.152610
O       5.71233      9.64670      4.88233         0.327254     -0.097080      0.620985
O       5.61941      9.58976      9.27680         0.228563     -0.141890      0.004287
O       9.51871      1.80070      0.50724         0.511238     -0.199349      0.440431
O       9.43317      1.95120     13.71305         0.752100      0.049870      0.495935
O       9.52335     13.29587      0.59779         0.231079      0.458023      0.618980
O       9.70431     13.30254     13.61685        -0.176564      0.539108      0.040429
O       9.63689      1.84906      4.78608        -0.032331      0.148203      1.155574
O       9.54044     13.27237      4.95805         0.458930      0.509297      0.300925
O       9.52370      1.93891      9.19433         0.569349     -0.261753      0.814294
O       9.55198     13.46917      9.25472        -0.061039      0.218801      0.534570
O       9.47863      5.73294      0.57035         0.098788     -0.089212     -0.659868
O       9.54350      5.68618     13.73879         0.100856     -0.089309      0.239213
O       9.68686      5.82594      4.86601        -0.422896      0.007168      0.670040
O       9.68426      5.74148      9.40872        -0.287591      0.031147     -1.884096
O       9.39513      9.55193      0.47609         0.560418      0.073143      1.477397
O       9.47467      9.64815     13.62868         0.164841     -0.457536     -0.102445
O       9.39906      9.41546      5.00862         0.566054      0.685806      0.794564
O       9.55340      9.58989      9.35286         0.346161     -0.294387     -0.210822
O       3.93127      1.78980      2.84650        -0.856976      0.579498     -0.583853
O       3.83719      1.84145     15.75246        -1.580308      0.223633      0.565907
O       3.88107     13.48098      2.81614        -0.393033     -0.035445     -0.122068
O       3.75139     13.36372     15.73159         1.710964     -0.166149      0.590425
O       0.06538      1.93762      2.72298        -0.138201     -0.412212      0.257312
O      15.30347      1.81696     15.81586         1.776157      0.198189      0.092381
O       0.01715     13.45138      2.72832         0.181000     -0.061962      0.173792
O      15.33864     13.31052     15.78927        -0.176456      0.309250      0.162004
O       3.86316      1.92511      7.19911        -0.296619      0.272831     -0.602059
O       3.84446     13.42828      7.06914        -0.095041      0.056729      0.191046
O      15.29922      2.01371      7.04926         0.302900     -0.435205      0.274039
O       0.03398     13.46478      7.06487        -1.755882      0.087762      0.702099
O       3.82173      2.02613     11.44680         0.054917     -0.593680     -0.129875
O       3.82711     13.46438     11.38588        -1.313452     -0.291051      0.361195
O       0.06443      1.83682     11.49580        -1.096361      0.361716     -0.115341
O      15.33063     13.49238     11.47122         0.269805     -0.597291     -0.219024
O       3.85241      5.81270      2.75050        -1.116845     -0.362698      0.283902
O       3.82319      5.64693     15.88419        -0.426024      0.082969     -0.483806
O       0.00182      5.75681      2.76392         0.242520     -0.517144      0.104904
O      15.30484      5.72137     15.87585         0.406610     -0.035214     -0.243367
O       3.83723      5.82882      7.28716        -0.161372     -1.019734     -0.886907
O       0.00873      5.80909      7.18202        -1.028053     -0.521029     -0.276653
O       3.88659      5.75835     11.39532        -1.436903     -0.023318      0.309399
O      15.27995      5.71123     11.47097         0.689552      0.182036      0.195625
O       3.74569      9.52063      2.79994         1.258241      0.003642     -0.193152
O       3.73865      9.58236     15.81061         0.606948     -0.157567     -0.145514
O      15.30094      9.71741      2.64902        -0.375498     -0.264001      0.716191
O      15.30211      9.50115     15.86563         0.168732     -0.110886     -0.227858
O       3.78136      9.71545      6.97065         0.209482     -0.427305      0.440668
O      15.31767      9.60309      7.06076        -0.292923     -0.197672      0.259005
O       3.79471      9.48828     11.43038        -0.960494      0.312484      0.109177
O      15.23750      9.49290     11.56289         1.170363      0.256068     -0.535303
O       7.65465      1.95491      2.59858         0.571770      0.163779      0.374699
O       7.61875      1.81040     15.87453         0.645123      0.211011      0.262258
O       7.74679     13.26829      2.80749        -0.710311      0.321189     -0.128380
O       7.71890     13.44424     15.76415        -1.283610     -0.116313      0.021515
O       7.67937      1.96949      7.14801         0.288782     -0.497044     -0.521792
O       7.70791     13.39858      7.01680        -0.826100      0.208294      0.572969
O       7.65635      1.81718     11.34739         0.175317      0.117685      0.272271
O       7.68437     13.54073     11.50603        -0.863468     -0.260369     -0.364784
O       7.68965      5.60971      2.77177        -0.461320      0.539099     -0.143371
O       7.59834      5.73646     15.79338        -0.483009     -0.017743      0.283527
O       7.67366      5.85039      7.06987        -0.222665     -0.336426     -0.129008
O       7.62805      5.86713     11.36259         1.245975     -0.508779      0.504250
O       7.64918      9.61463      2.71688        -0.400001      0.290562      0.092614
O       7.63573      9.42784     15.83163        -1.018715      0.723045     -0.282141
O       7.62746      9.54914      7.17985        -0.010148      0.102194     -0.062459
O       7.65152      9.53226     11.51679        -0.429159      0.151799     -0.342994
O      11.50519      1.76890      2.61772         0.404325      0.108298      0.201034
O      11.58309      1.90511     15.77817        -1.235959     -0.271226      0.305779
O      11.55846     13.36201      2.68341        -0.522189      0.729698      0.439386
O      11.46853     13.40837     15.95692        -0.306025      0.262536     -0.085303
O      11.45238      1.95332      7.12895         0.109400     -0.312299     -0.278656
O      11.49683     13.48794      7.01473         0.519308     -0.499648      0.227511
O      11.56646      1.95069     11.43377        -0.797261     -0.596462     -0.312074
O      11.52912     13.41614     11.41309        -0.187349      0.009652      0.038016
O      11.49128      5.85299      2.67531         0.155332     -0.092980      0.539397
O      11.47817      5.48831     15.86611         0.265573      0.854517     -0.124536
O      11.53290      5.76202      7.05372        -0.473227     -0.320559     -0.040486
O      11.57860      5.64431     11.50921        -1.120584      0.296612      0.303053
O      11.48536      9.53551      2.74017         0.012615     -0.149168      0.147126
O      11.39187      9.50200     15.74398         0.637981      0.332641      0.404838
O      11.51887      9.58526      7.10884        -0.433342      0.287304      0.001509
O      11.50916      9.59753     11.55696        -0.135526      0.213553     -0.293992
O       1.96379      3.75956      2.70278         0.362405      0.542525      0.087447
O       1.81179      3.82269     15.69093         0.393079     -0.463288      0.704698
O       2.03233     15.31661      2.78132        -0.832722      0.566108      0.197074
O       1.90555     15.25197     15.73827        -0.216681      1.335880      0.266834
O      13.37379      3.84989      2.79009         0.167311     -0.443721     -0.176208
O      13.47455      3.66605     15.89767         0.058639      1.730065      0.047804
O      13.49884     15.32502      2.70180        -0.250391      0.265417      0.458339
O      13.51131     15.31912     15.79540        -0.627721      0.230153      0.452890
O       1.94944      3.88821      7.17111        -0.150566     -0.349839      0.399956
O       1.91103      0.03938      7.12353        -0.195482      0.122018     -0.019702
O      13.35769      3.76588      7.05626         0.280727      1.255752      0.068517
O      13.37697     15.32910      7.10364         0.198412      0.469366     -0.166192
O       1.89735      3.78078     11.38281        -0.279063      0.716879      0.207820
O       1.83167     15.30820     11.46836         0.755395     -0.031146      0.128408
O      13.39461      3.76006     11.33680         0.761282      0.426488      0.428701
O      13.50111     15.34479     11.39599        -0.558627     -0.228925      0.286318
O       1.78465      7.66512      2.69278         0.237625     -0.724434      0.310825
O       1.87153      7.55603     15.83011         0.204597      0.566611     -0.353526
O      13.52338      7.73211      2.73839        -0.284086     -0.085587      0.156257
O      13.27837      7.59997     15.71058         0.220496     -0.491281      0.575392
O       1.94712      7.67954      7.08132        -0.561361      0.659563      0.072415
O      13.31040      7.64396      6.97064         0.831059     -0.015243      0.154756
O       1.82368      7.62056     11.47628         0.135824      0.682154      0.119796
O      13.31526      7.67912     11.54108         0.384499     -0.381022     -0.163492
O       1.95874     11.52457      2.80195         0.033709      0.419261     -0.130630
O       1.91093     11.39736     15.78037        -0.446829      0.419067     -0.003302
O      13.38538     11.51899      2.67826         0.212795     -0.077006      0.474085
O      13.34669     11.49771     15.74337        -0.112880     -0.364613      0.733325
O       1.85074     11.53297      7.08511        -0.225578     -0.063136      0.244331
O      13.49037     11.53788      7.12990        -0.173061      0.064153     -0.010716
O       1.87170     11.47485     11.43731         0.067304     -0.131526     -0.395079
O      13.53696     11.52647     11.34191        -0.427336     -0.316421      0.220183
O       5.74534      3.84518      2.75315        -0.397460     -0.553167     -0.214429
O       5.69721      3.77968     15.86143        -0.024828      0.686881      0.045702
O       5.98342     15.31070      2.80035        -0.830483      0.053672     -0.372827
O       5.69795     15.28176     15.98731         0.200001     -0.742311     -0.726889
O       5.72258      3.81709      6.93789         0.152660      0.513228      0.712635
O       5.82660      0.00709      7.06454        -0.174911     -0.710825      0.045198
O       5.80651      3.85926     11.45655        -0.088527     -0.640978     -0.184464
O       5.58102      0.03712     11.41667         0.859488      0.114640     -0.050273
O       5.74083      7.65616      2.83501         0.391605      0.548020     -0.379431
O       5.61756      7.66582     15.72310         0.066189     -0.626343      0.407922
O       5.65985      7.65400      7.03769         0.344895      0.657142     -0.090272
O       5.72921      7.69442     11.52312         0.004101     -0.169489     -0.250625
O       5.63598     11.54127      2.73160         0.522289     -1.382646      0.410051
O       5.75962     11.52086     15.73900        -0.016198     -0.164659      0.193680
O       5.71924     11.48882      7.16660         0.410677      0.179046     -0.276040
O       5.60653     11.51731     11.34198         0.549576     -0.241819      0.639260
O       9.73173      3.77431      2.69712        -0.494900      0.038970     -0.176034
O       9.45038      3.78645     15.98207         0.349007     -0.178786     -0.094037
O       9.64066     15.28763      2.77054        -0.418378     -0.337567     -0.098728
O       9.55401     15.31473     15.78966         0.614512      0.287792      0.244892
O       9.45300      3.87154      6.93586         0.758452      0.084931      0.257886
O       9.61499      0.01592      6.95387        -0.198019      0.473953      0.379504
O       9.56369      3.79860     11.39632        -0.059456     -0.392098      0.271091
O       9.63726      0.03307     11.44666         0.110819     -0.432942      0.016654
O       9.49100      7.67825      2.75093         0.172889     -0.100387     -0.065159
O       9.58194      7.60164     15.85813        -0.051924     -0.172820     -0.096159
O       9.58048      7.67602      7.14567         0.271654     -0.293135      0.243583
O       9.61429      7.61049     11.47128         0.329918      0.650669      0.406196
O       9.73932     11.44986      2.73125        -0.800176     -0.042346      0.023474
O       9.46892     11.44367     15.79009         0.354541      0.271818      0.121180
O       9.53963     11.49109      7.22741         0.500159     -0.096147     -0.430499
O       9.44601     11.49753     11.45956         0.541279      0.441658     -0.186000
