  # total energy = -7866.77718177 
CRSYTAL
PRIMVEC
    15.010000000000000    0.0000000000000000    0.0000000000000000
     0.0000000000000000   15.010000000000000    0.0000000000000000
     0.0000000000000000    0.0000000000000000    16.400000000000000
PRESSURE
17.9849 18.0069 9.28632 -0.140315 -0.135648 -0.04476
PRIMCOORD
320 1
Pb       3.90084      3.80010      4.27378        -1.029106     -0.403883     -1.320521
Pb       3.70135      3.73665      0.02868         0.326812      0.082388     -0.061237
Pb       3.67352      0.03785      4.13271         0.536331     -0.202077     -0.492755
Pb       3.73877     14.91397     16.39721         0.410791      0.315651      0.413891
Pb      14.94192      3.71282      4.10607         0.229761      0.363547     -0.444922
Pb      14.99395      3.62313     16.34177        -0.247863      0.560592      1.053655
Pb      14.96793      0.01284      4.18556         0.272735     -0.177489     -0.665646
Pb      14.96819     14.89586      0.11281        -0.192541      0.436458     -0.041205
Pb       3.61793      3.78013      8.23681         0.344129     -0.191111      0.241945
Pb       3.62671     14.96091      8.09945         0.815976      0.929767      0.953444
Pb      14.90087      3.81860      8.32131        -0.140685     -0.416101     -0.741000
Pb      14.89134     14.95802      8.15370        -0.337270      0.832485      0.715592
Pb       3.58899      3.73076     12.31086         0.328144      0.341675      0.631940
Pb       3.68389     14.93359     12.39229         0.172618      0.674786     -0.617859
Pb      14.96098      3.72610     12.41417         0.394610      0.128218     -0.000430
Pb      15.00407     14.95429     12.38178        -0.477064     -0.020910     -0.687161
Pb       3.83195      7.40369      4.14471        -0.055660      0.505503     -0.537230
Pb       3.74456      7.42647      0.09077        -0.059093      0.308049     -0.452494
Pb       0.00537      7.48980      4.16253         0.044827     -0.310866     -0.485129
Pb      14.95505      7.50794     16.39805         0.419739     -0.202472      0.099112
Pb       3.76588      7.49599      8.06419        -0.053551      0.281054      0.927771
Pb      14.98734      7.51708      8.32499        -0.475698     -0.140419      0.127166
Pb       3.69226      7.59024     12.28337        -0.176345     -0.192403     -0.304184
Pb      14.92860      7.42019     12.35946         0.477125      0.430278     -0.072300
Pb       3.76894     11.21919      4.34857         0.280347     -0.092747     -1.015310
Pb       3.76827     11.15290     16.30707         0.262149     -0.074518      0.765403
Pb       0.11743     11.20475      4.11323        -0.145071      0.030550     -0.285804
Pb      14.99257     11.31266      0.04419         0.002492     -0.700574     -0.020204
Pb       3.84045     11.27037      8.14409        -0.262080     -0.267819      1.044329
Pb       0.02467     11.26833      8.21227        -0.173756     -0.203013      0.833015
Pb       3.76973     11.33176     12.26975        -0.418666     -0.629884     -0.169618
Pb       0.02792     11.28679     12.35179        -0.130558     -0.414100     -0.585515
Pb       7.48126      3.68587      4.06363        -0.269151      0.212022     -0.706603
Pb       7.49681      3.70383     16.34476        -0.594247      0.345894     -0.123986
Pb       7.48111     14.90480      4.13744        -0.124070      0.495018     -0.426499
Pb       7.37169     14.99014      0.00727         0.140380     -0.157922     -0.314410
Pb       7.39582      3.66669      8.12992         0.376342      0.632371      1.279261
Pb       7.51994      0.18370      8.11846        -0.238843     -0.922086      0.781340
Pb       7.37361      3.78182     12.31758         0.348005     -0.263556     -0.287859
Pb       7.47393     14.89037     12.38798         0.270264     -0.084282     -0.438005
Pb       7.49725      7.53440      4.06811         0.422617     -0.485084     -0.235074
Pb       7.49375      7.54756     16.33963         0.460593     -0.517002      0.265797
Pb       7.45476      7.47415      8.30321         0.173387      0.097337      0.033731
Pb       7.47025      7.54320     12.35852        -0.145075      0.096262     -0.159950
Pb       7.69679     11.25290      4.18222        -0.492954     -0.548295     -0.231553
Pb       7.53591     11.23188     16.37290        -0.070375     -0.102362     -0.409546
Pb       7.57666     11.33390      8.07981        -0.070207     -0.504479      1.507988
Pb       7.47114     11.21842     12.22262         0.571437      0.567654      0.306451
Pb      11.08948      3.78719      4.10854         0.891353      0.270084     -0.447065
Pb      11.25916      3.65857     16.36656        -0.285931      0.662462      0.116846
Pb      11.27850     15.00081      4.12720        -0.204089     -0.480397     -0.316026
Pb      11.17279     14.91572      0.10098         0.069844     -0.007896     -0.326213
Pb      11.15220      3.73852      8.15388         0.701016     -0.229761      1.048214
Pb      11.15427      0.06173      8.19033         0.789023      0.108577      0.526690
Pb      11.21996      3.70298     12.38422        -0.391994     -0.155698     -0.189864
Pb      11.23669      0.11278     12.39640        -0.266829     -0.865649     -0.358643
Pb      11.41421      7.48686      4.18440        -0.945305     -0.476899     -0.703421
Pb      11.28043      7.51105      0.03779        -0.677103     -0.451267     -0.119049
Pb      11.23305      7.47659      8.20938        -0.016955     -0.406224      1.015669
Pb      11.33385      7.46941     12.29759        -0.474517      0.208050      0.125491
Pb      11.46122     11.12637      4.13073        -0.872526      0.384134     -0.440277
Pb      11.39086     11.11128     16.37722        -0.729545      0.517638      0.396259
Pb      11.28652     11.23811      8.25684        -0.085845      0.089518      0.279295
Pb      11.27051     11.27282     12.26312        -1.015992      0.138130      0.678604
Ti       1.86241      1.87455      2.07272         0.193371      0.702816      1.276617
Ti       1.85919      1.83278     14.51074        -0.086817      0.138636     -0.941228
Ti       1.92888     13.05823      2.14158         0.005771      0.406678      0.577938
Ti       1.79742     13.12704     14.49728         0.134095     -0.541123     -0.716676
Ti      13.04635      1.87407      2.10722         0.780253      0.816359     -0.268690
Ti      13.08506      1.84486     14.51973        -0.791888     -0.651501     -0.666411
Ti      13.12811     13.13686      2.11573        -0.818184      0.054660      1.154358
Ti      13.03790     13.10158     14.44314         0.085334     -0.606491     -0.597415
Ti       1.81827      1.86251      6.26221         0.018407      0.804259     -0.049087
Ti       1.90141     13.07671      6.32032        -0.026976      1.027960      0.063686
Ti      13.13664      1.86818      6.09639        -0.472797      0.367578      1.020415
Ti      13.14237     13.08558      6.23117        -0.425294      0.340606     -0.704968
Ti       1.81495      1.91431     10.23907         1.135450     -1.280763      0.409657
Ti       1.87841     13.16620     10.30583        -1.107060     -1.098056     -0.194126
Ti      13.14993      1.89346     10.41961        -1.400217     -1.840960     -1.870476
Ti      13.05241     13.09887     10.27558         0.164379      1.348772      0.735494
Ti       1.80524      5.63469      2.11150        -0.186008     -1.295549     -0.459780
Ti       1.83296      5.63101     14.50554        -0.316417      0.058041     -0.957596
Ti      13.11558      5.66944      2.00431        -0.455014     -1.377251      0.665815
Ti      13.11817      5.63817     14.40942        -0.853086     -0.360522      0.093019
Ti       1.80479      5.58733      6.19990        -0.630845      0.028761      0.370172
Ti      13.06607      5.57508      6.27317         1.467087     -0.228026     -1.114594
Ti       1.80697      5.62136     10.34770         0.314574      0.733801      0.941630
Ti      13.04962      5.55635     10.33230        -0.019007      2.434842     -0.558297
Ti       1.98046      9.36585      2.00256         0.268649     -0.410530      1.495315
Ti       1.88481      9.37661     14.39066        -0.504338     -0.719979     -1.065530
Ti      13.21934      9.37512      2.16298        -0.024950     -0.670896     -1.183684
Ti      13.15914      9.34725     14.42504         0.203878      0.125303     -1.123080
Ti       1.83861      9.30272      6.25079         0.011464      0.403545      0.039463
Ti      13.13279      9.30749      6.28183         0.484911     -0.207032      0.074935
Ti       1.81122      9.38298     10.22727        -0.328241      0.954949      1.211295
Ti      13.03530      9.38677     10.35718         0.836658     -0.910688     -0.182940
Ti       5.55613      1.83657      2.09604         0.240743     -0.201129      0.693554
Ti       5.51170      1.92255     14.30530         1.033581     -0.394498      0.752430
Ti       5.63632     13.03236      2.12583        -0.677678      0.491836      0.615211
Ti       5.54280     13.09673     14.42348         2.074307      0.413743     -0.128381
Ti       5.62745      1.91501      6.20379         0.645391     -1.532719     -0.040993
Ti       5.70411     13.14032      6.20150        -0.286082      0.834231     -0.267955
Ti       5.54313      1.89430     10.32216        -0.227788     -0.229484     -0.379710
Ti       5.57503     13.21893     10.21814         1.080145     -0.007085      0.058872
Ti       5.55805      5.60627      2.01674         0.618643     -0.108512      0.609039
Ti       5.56699      5.70184     14.35524        -0.165227     -1.473978      0.679760
Ti       5.58544      5.58760      6.25802         1.307115      0.108553     -0.788335
Ti       5.55688      5.62506     10.32795        -0.091433      0.522330      0.237024
Ti       5.69312      9.39788      2.11257        -1.042249     -0.980783     -0.412024
Ti       5.66120      9.37537     14.35871        -0.938180      0.194951      0.335122
Ti       5.70280      9.34335      6.20284        -0.342000      0.230023      0.984898
Ti       5.54076      9.47611     10.27804         0.420309     -1.060778     -0.558642
Ti       9.31766      1.79671      2.03422        -0.338742     -0.192302      0.458021
Ti       9.24681      1.83698     14.41065         0.677521     -0.593715     -0.578228
Ti       9.30013     13.03491      2.04177         2.285986      0.666280     -0.269812
Ti       9.36865     13.08762     14.48662        -0.338470      0.085917     -0.139296
Ti       9.39058      1.80971      6.15119         0.608807     -0.175947     -0.143340
Ti       9.48796     13.05298      6.16012        -0.301021      0.576824      0.709511
Ti       9.35322      1.92995     10.37442         0.309696     -0.049719      0.506960
Ti       9.37075     13.17191     10.25295        -0.277669     -0.658442      1.078776
Ti       9.29490      5.59745      2.05449         0.877065      1.415987     -0.138330
Ti       9.34793      5.55635     14.28946        -0.069462      1.021552      1.093683
Ti       9.30699      5.61144      6.21847         1.227672      0.805046      0.386229
Ti       9.27507      5.68774     10.33446         1.043377     -0.857714      0.135328
Ti       9.38850      9.38446      2.07831         0.547440     -1.423398     -0.263649
Ti       9.44266      9.32555     14.38421        -1.687102      0.217519     -1.026190
Ti       9.43608      9.33107      6.29150        -0.718121     -0.773072     -1.400889
Ti       9.28823      9.34425     10.34465         0.423056      1.136162      1.010358
O       1.94022      1.89866      0.29018        -0.044673     -0.448975     -0.351217
O       1.91332      1.87597     12.67290        -0.544917     -0.476746     -0.118900
O       1.87841     13.12129      0.35962        -0.215254     -0.060225     -0.843583
O       1.80615     13.13803     12.64575         0.176859      0.059188      0.675895
O      12.96622      1.76569      0.26220         0.153028      0.135464     -0.301334
O      13.11939      1.87382     12.65330         0.234891      0.155047     -0.090375
O      13.02312     13.14260      0.33585         0.765979     -0.203100     -0.952679
O      13.01650     13.05687     12.65136         0.520486     -0.038025     -0.449866
O       1.69122      1.95602      4.48430         0.527549     -0.879271     -0.394694
O       1.81852     13.03347      4.53180         0.131315      0.361361     -1.035637
O      13.05937      1.96499      4.30748         0.539299     -0.348814     -0.556164
O      13.14777     13.00882      4.36456         0.045663      0.290928      0.513877
O       1.82014      1.92429      8.45014         0.045805      0.183585     -0.182974
O       1.97554     13.12930      8.47926        -0.346135      0.003037      0.365858
O      12.99217      1.76222      8.55942         0.528778      0.348682      0.575747
O      13.09613     13.24365      8.44247        -0.174237     -0.702947      0.370923
O       1.71472      5.52855      0.23407         0.341869      0.153624      1.162458
O       1.84855      5.58007     12.64645        -0.122988     -0.070378     -0.171539
O      13.18365      5.59943      0.18827        -0.382779      0.346886      0.046318
O      13.03924      5.68141     12.57610         0.315568     -0.875547     -0.357246
O       2.00666      5.65810      4.43636        -0.723922      0.033583     -0.430575
O      13.10646      5.62907      4.39144        -0.316217     -0.013984      0.770865
O       1.76797      5.57232      8.56355         0.118120      0.110572     -0.744728
O      13.10447      5.71292      8.49372         0.666016     -0.461938      0.158799
O       1.99277      9.34771      0.23318        -0.471541      0.108349     -0.093499
O       1.81817      9.40144     12.51685        -0.061891      0.133056      1.604051
O      13.22327      9.21575      0.26626        -0.679567      0.713230      0.890431
O      13.07384      9.39758     12.58649         0.436374      0.070961      0.434318
O       1.75331      9.31102      4.43962         0.152307      0.165680      0.514968
O      13.22569      9.28368      4.41148        -0.104138      0.264840     -0.002837
O       1.87175      9.37970      8.41156         0.035799     -0.136299      0.255445
O      13.05313      9.40730      8.50379        -0.132077     -0.198748      0.064406
O       5.47030      1.84060      0.31910         0.251127     -0.290439     -0.389350
O       5.49543      1.90757     12.52498         0.216129     -0.210152     -0.544451
O       5.67884     13.09968      0.30786        -0.295289      0.142879      0.259720
O       5.67787     13.08811     12.60887        -0.515730      0.214684      0.074238
O       5.73276      1.86116      4.41065        -0.112834      0.364870     -0.174802
O       5.56418     13.05545      4.39895         0.352716      0.110267      0.155979
O       5.61976      1.82950      8.48462         0.251293      0.501883      0.088860
O       5.54833     13.18697      8.39958         0.206430     -0.151572      0.653932
O       5.38609      5.61088      0.22688         1.015653      0.152624      0.125232
O       5.61169      5.59512     12.56094        -0.372197      0.162817      0.230883
O       5.62743      5.52485      4.39005        -0.096591     -0.108953      0.694536
O       5.70071      5.59698      8.49705        -0.546779      0.196352     -0.268581
O       5.58555      9.32628      0.28380         0.067919     -0.049076      0.284846
O       5.58333      9.45921     12.56287        -0.068898     -0.194637     -0.249123
O       5.77013      9.31372      4.46009        -0.234137      0.557581     -1.131162
O       5.54588      9.31056      8.38540        -0.085050      0.187711      0.903424
O       9.33522      1.90311      0.19425         0.042107      0.039551      1.094225
O       9.36568      1.97819     12.58219        -0.435114     -0.612576      0.136282
O       9.29776     13.03607      0.21164         0.095107      0.159336      0.990775
O       9.36716     13.17637     12.73341        -0.436315     -0.087213     -1.460533
O       9.30595      1.66162      4.35515         0.283257      0.813313      0.379989
O       9.45379     13.10083      4.38951        -0.021757     -0.331536     -0.752898
O       9.48341      1.88438      8.53089        -0.458790     -0.018629     -0.387926
O       9.45011     13.06404      8.45903        -0.234578      0.048485      0.090349
O       9.44948      5.64892      0.26592        -0.472037     -0.557817      0.078202
O       9.37992      5.68062     12.50326        -0.216170     -0.116921      0.163986
O       9.45100      5.75795      4.44205        -0.119909     -0.510177     -0.323605
O       9.32139      5.66166      8.54492        -0.048995     -0.304516     -0.956467
O       9.32554      9.30595      0.21907         0.323402      0.260934      0.603035
O       9.28424      9.20842     12.52023        -0.123686      0.524930      1.515628
O       9.30678      9.35907      4.42033         0.427499     -0.004408      0.915006
O       9.33922      9.44019      8.56608         0.308419     -0.149196     -1.377368
O       3.74845      1.96817      2.56070        -0.386968     -0.790225     -0.019211
O       3.73174      1.91623     14.66716        -1.160298      0.143190      0.391285
O       3.77219     13.20246      2.43975        -0.133443     -0.442939      0.029491
O       3.73913     12.94161     14.79028        -1.048933      0.412882     -0.472602
O       0.03070      1.90482      2.28321        -1.185413     -0.261820      0.244586
O      14.92621      1.64622     14.82319         0.753551     -0.125058     -0.194488
O       0.00736     13.02582      2.36847        -0.012538      0.220262      0.110425
O      14.94036     13.22366     14.67949         0.862029     -0.161420      0.600803
O       3.87785      1.75093      6.41330        -3.336721     -0.256683      0.137731
O       3.79341     13.36652      6.47274        -0.693127     -0.182410     -0.565250
O      14.95046      1.94170      6.49632         0.163163      0.170419      0.139987
O       0.00274     13.10636      6.60540        -0.274919     -0.665635     -0.425509
O       3.66464      1.59935     10.40924         0.106537      0.377879      0.763000
O       3.69887     13.17345     10.73347         0.565821      0.613419     -0.445052
O       0.02253      1.98100     10.60475        -1.407026      0.251779      0.483229
O      14.91843     12.98808     10.66937         0.302509     -0.011468     -0.334327
O       3.73283      5.62735      2.36596        -0.377464      0.072019      0.127959
O       3.63581      5.52017     14.73691         1.538899     -0.342305     -0.283512
O      14.92993      5.49972      2.48247         1.147039      0.419126     -0.156705
O      14.93282      5.75599     14.58845         0.403925     -0.236354      0.100506
O       3.73734      5.70247      6.50155        -0.585982     -0.084776      0.249393
O      14.96126      5.34041      6.48228         0.706988      0.588291     -0.098050
O       3.69135      5.74857     10.55254        -0.466527      0.286118      0.099193
O      14.98978      5.38973     10.65639        -0.383489      0.352689      0.005277
O       3.82293      9.21888      2.52152        -1.017529      0.518549     -0.209771
O       3.69771      9.46891     14.67123         0.840683      0.049438     -0.329508
O       0.10151      9.43391      2.37044        -0.807029      0.045192     -0.095870
O      15.00348      9.17218     14.74312         0.153555      0.569520     -0.419742
O       3.72178      9.17671      6.35672         0.231048     -0.034812      0.078316
O      14.93503      9.62886      6.60100         1.409066     -0.410404     -0.474501
O       3.69115      9.39808     10.64671        -0.025474     -0.472885     -0.373075
O      14.88536      9.66475     10.52763         1.184607     -0.358141     -0.192419
O       7.45951      1.86083      2.41485         0.719538      0.370852     -0.354774
O       7.37567      1.71203     14.74769         0.496367     -0.056964     -0.243114
O       7.54580     12.95989      2.49140        -1.569981     -0.229911     -0.086498
O       7.45007     13.25723     14.75318        -0.397669      0.071296     -0.199233
O       7.54149      1.99003      6.52943         0.747831      0.367979     -0.124425
O       7.57846     12.95092      6.49841        -0.543302     -0.197347     -0.679586
O       7.47633      2.04140     10.56069        -0.329773     -0.152599     -0.008039
O       7.46143     12.98736     10.55016        -0.084699      0.769959     -0.092901
O       7.45919      5.60384      2.31554        -0.163931     -0.415670      0.127103
O       7.45058      5.64307     14.70727        -0.405674      0.593155     -0.096948
O       7.53814      5.41620      6.49079        -1.151197     -0.193183     -0.173254
O       7.43774      5.46627     10.56593        -0.957411     -0.124023      0.251491
O       7.53182      9.52836      2.38600         0.172262     -0.152941      0.113586
O       7.45120      9.16160     14.66330         0.619499      0.210799     -0.166700
O       7.53990      9.51440      6.53193        -0.588352      0.144855     -0.058861
O       7.40853      9.51309     10.55004        -0.624715     -0.066617     -0.045198
O      11.21715      1.71335      2.44700        -1.426891      0.381046     -0.417284
O      11.14125      2.01001     14.64147         1.277180      0.219300      0.008673
O      11.22851     13.20480      2.27525         0.036566      0.209860      0.494258
O      11.25108     12.89377     14.71777        -0.837150     -0.268121      0.617162
O      11.28544      1.63185      6.42412        -1.498986      0.392323     -0.161096
O      11.29268     13.25018      6.48145        -0.012005     -0.056700     -0.024459
O      11.20909      1.73587     10.66334         0.742394      0.955849      0.226437
O      11.18909     13.24635     10.68712         0.864007     -0.641011     -0.407375
O      11.25821      5.70054      2.31238        -0.065763      0.120582      0.238348
O      11.17795      5.42338     14.59734         0.686215     -0.267370      0.258509
O      11.32929      5.87395      6.52751        -2.426939     -0.302708     -0.101434
O      11.24663      5.90706     10.40104        -0.755482     -0.125816      0.803540
O      11.28576      9.24511      2.42519         0.283126     -0.135142     -0.176899
O      11.22691      9.41758     14.58949         0.840828      0.313543      0.619340
O      11.27509      9.02709      6.44694        -0.131811      0.791882     -0.281174
O      11.14005      9.20203     10.68103         0.847136      0.000030     -0.574282
O       1.91755      3.76995      2.50799        -0.176722     -0.199510     -0.407153
O       1.69079      3.65019     14.74680        -0.106600      0.945190     -0.400871
O       1.91556     14.99431      2.39981        -0.351105      0.096216      0.345801
O       1.96073     14.97277     14.80232         0.002618     -0.614581     -0.125579
O      13.04018      3.70689      2.23472        -0.193398      0.818724      0.253120
O      13.29759      3.72121     14.67034        -0.468164     -0.176338     -0.052221
O      13.11254      0.02759      2.33528         0.896103     -1.414675      0.717345
O      12.94077     14.89049     14.66407        -0.127937      1.952436      0.385301
O       1.90135      3.74701      6.53587         0.839694     -0.235370      0.085255
O       1.67630      0.03426      6.61700         0.815548     -0.702239     -0.761279
O      12.96747      3.68800      6.56054        -0.323126      0.574349     -0.044651
O      13.15884      0.01878      6.27813         0.932683     -1.404537      0.215241
O       2.01482      3.73784     10.63212        -0.168766     -0.147081     -0.437233
O       1.65914     14.96195     10.54767        -0.027279      0.797304      0.320728
O      12.96656      3.77818     10.47106        -0.162160     -1.284038      0.742979
O      13.12022      0.00202     10.59413         0.737778     -0.564850      0.541140
O       1.86253      7.47338      2.30595        -0.376356      0.175927      0.262890
O       1.90596      7.46626     14.69277         0.326413      0.882002      0.033932
O      13.25936      7.51327      2.31534         0.066191     -0.560929      0.449201
O      12.97695      7.48940     14.59391        -0.330922     -0.340494      0.451978
O       1.61851      7.47602      6.57309         0.141096     -0.208624     -0.240337
O      13.36364      7.45592      6.57286         0.357687      0.672202     -0.484597
O       1.66284      7.57833     10.63038         0.081160     -1.377447     -0.310852
O      13.31265      7.50692     10.68096        -0.199453      0.183008     -0.510055
O       1.96458     11.19940      2.42378         0.145922      0.377598      0.142546
O       1.72239     11.23469     14.82842        -0.102791      0.383803     -0.510875
O      13.01325     11.20183      2.33721         0.343245      0.712331      0.067337
O      13.21314     11.15641     14.83368         0.324535      0.916733     -0.000230
O       2.11041     11.26802      6.59661        -0.735330     -0.821258     -0.755539
O      12.93720     11.21002      6.48724        -0.100186      0.296956     -0.064290
O       1.94271     11.24096     10.54716        -0.198021      0.876484      0.195225
O      12.85450     11.23174     10.61295         0.158574      0.870042     -0.597470
O       5.65919      3.71151      2.34770        -0.128095      0.725298      0.217245
O       5.67048      3.73014     14.73292        -0.100775      0.652696     -0.230125
O       5.64986     14.93986      2.50807         0.085309      0.181634     -0.503016
O       5.44560      0.00716     14.56503        -0.215046     -0.904336      0.421495
O       5.49940      3.74721      6.56322         0.191698     -0.166718      0.009312
O       5.90708      0.01045      6.47772        -0.296455     -0.174962     -0.430542
O       5.29195      3.74612     10.67360         0.636476      0.060028     -0.733438
O       5.68449      0.03565     10.57148         0.268281     -0.950582      0.447040
O       5.64745      7.48996      2.44990         0.436410     -0.446942     -0.238678
O       5.41788      7.50954     14.65470        -0.051685     -0.269669     -0.000423
O       5.72884      7.40784      6.31887         0.271923      1.261066      0.864194
O       5.59136      7.54265     10.64268         0.346070     -0.188670     -0.370359
O       5.55779     11.18158      2.43777        -0.305785      1.230703      0.169848
O       5.74043     11.19638     14.72827        -0.201487      0.745597      0.002093
O       5.32209     11.29762      6.40200         0.931064     -1.296819     -0.045189
O       5.49680     11.33250     10.54161        -0.265611     -0.386842     -0.088120
O       9.40679      3.75634      2.47979        -0.161976     -1.132635     -0.323547
O       9.10488      3.69671     14.55225         0.194047      0.904191      0.454257
O       9.15883     14.93905      2.26230         0.625268      0.396932     -0.114050
O       9.52763     14.98288     14.66611        -0.365974      0.555537      0.341384
O       9.71335      3.73897      6.40622        -0.976723     -0.373208     -0.635701
O       9.22157     14.91296      6.41034         0.114370      1.180684      0.402853
O       9.47854      3.83468     10.67591         0.285903     -0.984130     -0.310392
O       9.41805     14.97995     10.73216        -1.532532      0.851207     -0.562230
O       9.22440      7.51072      2.35335         0.285637     -0.075411     -0.049639
O       9.45656      7.46636     14.70836        -0.159893     -0.590366     -0.111404
O       9.18400      7.46976      6.64548         0.083944      0.381839     -0.312350
O       9.00907      7.51365     10.62252         0.344767     -0.213945     -0.676180
O       9.59673     11.20637      2.34291        -0.466886      0.387087      0.382532
O       9.17478     11.22166     14.64266        -0.017957     -1.252377      0.088114
O       9.60336     11.19399      6.54411        -0.116931     -0.148107     -0.237261
O       9.38445     11.25123     10.72939         0.400726      0.300891     -0.523146
