  # total energy = -7877.71333694 
CRSYTAL
PRIMVEC
    15.2000000000000000    0.0000000000000000    0.0000000000000000
     0.0000000000000000   15.2000000000000000    0.0000000000000000
     0.0000000000000000    0.0000000000000000    17.000000000000000
PRESSURE
6.96175 7.43979 2.50775 0.279461 -0.107706 0.028165
PRIMCOORD
320 1
Pb       3.90894      3.74136      4.20756        -0.885523      0.148456     -0.128205
Pb       3.57176      3.67068      0.01253         0.461889      0.519884     -0.099175
Pb       3.95177     14.98440      4.20782        -0.343700      0.145661     -0.003093
Pb       3.73883     15.15840      0.01629         0.129429     -0.227348     -0.836809
Pb      15.16140      3.71567      4.29177        -0.350919      0.036781     -0.629325
Pb      15.07129      3.81455     16.96644        -0.215546      0.168385     -0.024337
Pb      15.18860     14.99717      4.10361        -0.399459      0.185992     -0.048632
Pb      15.14869      0.04789      0.00446        -0.276749     -0.428567      0.170150
Pb       3.56146      3.74669      8.55601         0.248245      0.494584     -0.241358
Pb       3.75618      0.16404      8.22101         0.187448     -1.181397      0.798348
Pb      15.02331      3.82147      8.34640         0.746679      0.098227      0.023378
Pb       0.19230      0.08995      8.44686        -0.836018     -0.271765     -0.132619
Pb       3.75107      3.77869     12.85666         0.239349     -0.057419     -0.623090
Pb       3.79331     15.12331     12.64515         0.068607      0.138954      0.515535
Pb       0.00085      3.67162     12.81820        -0.589585      0.323921      0.311044
Pb      15.09759     15.07190     12.58530         0.105664      0.691959      0.986706
Pb       3.84358      7.47677      4.15656        -0.806851      0.812648      0.291926
Pb       3.73566      7.49263      0.07909         0.386856     -0.054788     -0.392745
Pb       0.01447      7.37128      4.20542         0.068978      0.903716      0.398353
Pb       0.06025      7.60051      0.18516        -0.400184     -0.348651     -0.904025
Pb       3.72070      7.50351      8.57679         0.560341      0.177912     -0.071157
Pb       0.04448      7.68112      8.51222        -0.187723     -0.199482     -0.690436
Pb       3.80271      7.76658     12.90176        -0.094386     -0.476792     -1.403894
Pb      15.16669      7.75776     12.86671         0.183857     -0.506878     -0.513516
Pb       4.01093     11.34085      4.16510        -0.564012      0.389300      0.151188
Pb       3.63219     11.37081     16.71780         0.713937      0.747271      0.830893
Pb       0.00391     11.25412      4.25052         0.385427      0.389778      0.079029
Pb      15.10442     11.38670      0.05823         0.084270      0.369748     -0.885769
Pb       3.81925     11.34822      8.34373        -0.130808      0.484470      0.904440
Pb       0.02574     11.34636      8.46006         0.010624      0.098211     -0.417830
Pb       3.88562     11.45404     12.66732        -0.306176      0.594537      0.123474
Pb       0.00837     11.60402     12.56871         0.169994     -0.656337      0.585743
Pb       7.64418      3.85230      4.29353        -0.186422     -0.351133     -0.464111
Pb       7.60615      3.77587     16.95394        -0.480176      0.127940     -0.574582
Pb       7.58039      0.08465      4.25744         0.394458     -0.701828     -0.146413
Pb       7.49835      0.03134     16.97169         0.135920     -0.438364     -0.061252
Pb       7.41021      3.82479      8.57613         0.205314      0.047229     -0.175600
Pb       7.51383      0.03547      8.54303         0.319263     -0.394140     -0.296662
Pb       7.58640      3.66260     12.66627        -0.246402      0.197594      0.230245
Pb       7.63231      0.01572     12.69828        -0.176695     -0.394303     -0.137567
Pb       7.38299      7.57989      4.30883         0.944855      0.648504      0.005403
Pb       7.68010      7.37743     16.97077        -0.521562      0.948268     -0.014916
Pb       7.61187      7.52525      8.63381        -0.314461     -0.050936     -0.807187
Pb       7.76935      7.58564     12.85098        -0.231159     -0.464774     -0.622025
Pb       7.68245     11.45051      4.15906        -0.115830      0.198488     -0.177743
Pb       7.54465     11.29173     16.96569         0.205635      0.177581      0.375071
Pb       7.62018     11.23652      8.40084         0.228915      0.524772      0.264659
Pb       7.66839     11.36885     12.82990         0.059880      0.509676     -0.765626
Pb      11.40917      3.73815      4.35018        -0.084022     -0.462581     -0.338984
Pb      11.41474      3.96283     16.96278        -0.067609     -1.077193      0.074562
Pb      11.27621      0.00169      4.28723         0.347507     -0.072542     -0.428822
Pb      11.25709      0.03453     16.99240         0.736113      0.049588      0.107308
Pb      11.32944      3.74110      8.48895        -0.359938      0.568857     -0.089240
Pb      11.41918     15.13649      8.67174        -0.279499     -0.138814     -0.725518
Pb      11.47459      3.79841     12.67335        -0.290583     -0.151485      0.246703
Pb      11.31672      0.00824     12.80696         0.330372     -0.258322     -1.131661
Pb      11.35618      7.47208      4.34526        -0.380280      0.392904     -0.042924
Pb      11.39073      7.57567      0.10851         0.015719      0.526687     -0.515756
Pb      11.48313      7.69223      8.37636        -0.592338     -0.742345      0.295532
Pb      11.44184      7.64312     12.65432        -0.357820     -0.137208      0.399029
Pb      11.43053     11.51388      4.28054        -0.378769     -0.051371     -0.320459
Pb      11.32595     11.22100      0.11686        -0.107937      0.658183      0.288568
Pb      11.37588     11.30942      8.48805         0.087390      0.461811     -0.271997
Pb      11.49773     11.36352     12.98321        -0.139174      0.247319     -1.169692
Ti       1.81851      1.84802      2.23853         0.142893      0.525508      1.478181
Ti       1.78079      1.87232     14.97096         0.190049     -0.232667     -1.080258
Ti       1.91444     13.24334      2.16556        -0.090525     -0.323230      0.158978
Ti       1.79647     13.33160     14.89540         0.781759     -0.344660     -0.574901
Ti      13.24381      1.84304      2.26425        -0.393601      0.254246     -0.462141
Ti      13.20654      1.87509     15.00512         0.655455      0.505066      0.449543
Ti      13.30414     13.21332      2.05074        -0.625688      1.683436      0.230453
Ti      13.22446     13.34358     14.97459         1.427344     -0.613785      1.208954
Ti       1.83147      1.89003      6.20518        -0.594405      0.566980      0.873803
Ti       1.91953     13.26338      6.41785         0.445171     -0.336422      0.548922
Ti      13.15888      1.82621      6.54429         1.021865     -0.394101     -0.375317
Ti      13.33628     13.28468      6.47555        -0.022968     -0.269990      1.823275
Ti       1.75645      1.92003     10.80587         0.887834     -0.514355      0.411059
Ti       1.99898     13.35291     10.60439        -0.118703     -0.432345      0.043389
Ti      13.28779      1.97813     10.64058        -0.842029     -1.183350     -0.146146
Ti      13.32415     13.28902     10.60979        -1.032678      0.121992      0.756923
Ti       1.81552      5.64874      2.22747        -0.075953     -0.230332      0.468386
Ti       1.84118      5.71346     14.90679        -1.377779      0.153246      1.322735
Ti      13.14557      5.64816      2.27749         0.756822     -0.081056      0.171504
Ti      13.21783      5.73416     14.90243         1.010599     -0.313084      0.708421
Ti       1.90693      5.64162      6.39945        -1.077790      0.287925     -0.086448
Ti      13.13990      5.67362      6.42948         0.618720      0.661111      0.914865
Ti       1.80252      5.65032     10.75607         0.906668      1.493228      0.161925
Ti      13.32780      5.75550     10.66807        -0.942523     -0.047161     -0.838639
Ti       1.92490      9.53980      2.17561        -0.229260     -0.417160      2.232154
Ti       1.86893      9.44070     14.92971        -0.668460      1.573921     -0.717224
Ti      13.29176      9.48035      2.33105        -0.396946     -0.125508     -0.160381
Ti      13.31242      9.47617     15.05460        -0.501575      0.153454      1.364126
Ti       1.91951      9.42455      6.44570        -1.166382     -0.180418     -1.091457
Ti      13.25572      9.50776      6.36112         0.647284     -0.069961      0.365409
Ti       1.97166      9.53757     10.79786        -0.358974     -0.120449     -0.107888
Ti      13.34199      9.48214     10.75027        -1.315355      0.778176     -0.718203
Ti       5.62468      1.95855      2.21444         0.426633     -0.538219     -0.587931
Ti       5.70043      1.89079     15.00448        -0.553602     -0.034138     -1.059742
Ti       5.73728     13.37893      2.09039         0.445672     -1.513884      0.857111
Ti       5.75149     13.26331     14.87334        -1.097719      0.703149      1.421551
Ti       5.61267      1.96159      6.40994         1.172588     -0.656431      0.596262
Ti       5.79843     13.27338      6.52694        -0.667879      0.820151     -0.280809
Ti       5.56655      1.89597     10.66383         0.831257     -0.055839      0.430712
Ti       5.84038     13.33729     10.63050        -0.335740     -1.051535     -0.050185
Ti       5.64537      5.73062      2.22223        -0.131269     -0.801891     -2.122849
Ti       5.57350      5.75631     14.83623         1.496382     -1.099781      0.182739
Ti       5.59139      5.68570      6.46324         0.689484      1.438656      1.514985
Ti       5.66227      5.71586     10.77311        -0.526654      0.380955     -0.240003
Ti       5.65445      9.48654      2.15028         1.232472      0.876140      0.825675
Ti       5.63173      9.45509     14.91067         1.203747      1.213368      0.849860
Ti       5.62340      9.50500      6.44221         1.079479     -1.667651     -0.357347
Ti       5.74109      9.52901     10.77575        -0.680479     -0.236961     -0.053811
Ti       9.44210      1.89938      2.14577         0.303022     -0.840343     -0.077272
Ti       9.48053      1.89826     14.94761        -0.035877      0.322426      0.265840
Ti       9.54295     13.34708      2.12439        -0.150203     -0.388335      1.349711
Ti       9.53820     13.33310     14.97340        -0.774524     -0.801551     -0.204696
Ti       9.35473      1.89910      6.57009         0.735240     -0.557154      0.709898
Ti       9.56368     13.33372      6.49679        -0.472321     -0.580368      1.434777
Ti       9.44934      1.79411     10.68282         0.624105     -0.048131      0.232057
Ti       9.60624     13.18113     10.61641        -0.206110      1.202527      0.232983
Ti       9.41494      5.66111      2.27119        -0.198594      0.271063      0.306724
Ti       9.45199      5.70670     14.92427        -0.344671     -0.514017     -1.588070
Ti       9.34946      5.64480      6.47119         1.124944      0.804583      0.205196
Ti       9.47814      5.59153     10.74459         0.425153      0.916877     -0.293691
Ti       9.52573      9.43198      2.47784        -1.048186      0.548399     -0.880156
Ti       9.46606      9.54073     15.02712         0.713005      0.003786      0.623235
Ti       9.48430      9.48680      6.45787        -0.196654     -0.022158     -0.367922
Ti       9.48367      9.45472     10.70375         1.109435      0.682626     -0.934052
O       1.89056      1.98047      0.48894         0.096354      0.050930     -1.291715
O       1.69102      1.80179     13.12398         0.415197      0.838515      1.107366
O       1.83284     13.19905      0.40512         0.565746      0.023027     -0.225678
O       1.76870     13.37453     13.05731         0.134952     -0.091759      1.110806
O      13.23314      1.95411      0.48457        -0.010384      0.167505     -0.253923
O      13.31024      1.98140     13.25464        -0.170797     -0.197099     -0.691918
O      13.22352     13.25210      0.27702         0.378592     -0.234244      0.057831
O      13.43483     13.37760     13.21909        -0.456229     -0.288312     -0.465435
O       1.92905      1.92137      4.45358        -0.521831     -0.265894      0.298652
O       1.89288     13.33658      4.64390         0.028332      0.161495     -0.381833
O      13.22185      1.88492      4.74481         0.090599     -0.040886      0.019258
O      13.48072     13.23305      4.74694        -0.242695      0.524981     -1.010163
O       1.77103      1.99196      9.04021         0.333693     -0.042202     -0.449588
O       1.88259     13.44201      8.82951         0.309524     -0.429669      0.175108
O      13.43367      1.90534      8.83959        -0.726532      0.161327      0.832387
O      13.29226     13.24772      8.84828        -0.020598      0.066896      0.473846
O       1.93638      5.69844      0.45342        -0.230535      0.328186     -0.677108
O       1.75885      5.63195     13.17867         0.233636      0.311557     -1.135731
O      13.16705      5.54916      0.50194        -0.046463      0.392618     -0.706050
O      13.34095      5.78158     13.15042        -0.195352     -0.228848     -0.068058
O       1.93132      5.72611      4.60323        -0.089037     -0.130139      0.333591
O      13.09056      5.67427      4.61917         0.160404     -0.053897      0.406541
O       1.81220      5.67474      8.95599         0.117821     -0.079641      0.153105
O      13.12991      5.77842      8.80186         0.680129     -0.135167      1.484550
O       1.88132      9.50735      0.43004        -0.073764     -0.195195     -0.852045
O       1.87905      9.42345     13.09824        -0.032214      0.416028      1.084528
O      13.27458      9.54168      0.51251         0.176565     -0.225554     -0.124379
O      13.26554      9.35371     13.33592        -0.139483      0.180673     -2.084850
O       1.73858      9.34278      4.65972         0.643151      0.409194      0.783766
O      13.28333      9.49053      4.59031         0.105030      0.206650     -0.529681
O       1.85511      9.45662      8.99883         0.093250     -0.030646     -0.440419
O      13.23106      9.32300      8.95320         0.572724      0.731537      0.503021
O       5.65953      1.98700      0.38865        -0.306952     -0.022314      0.336431
O       5.71784      1.81438     13.18471         0.094708      0.243670      0.532874
O       5.79351     13.33745      0.36097        -0.473135     -0.073577     -0.702974
O       5.69792     13.32212     13.12616         0.254968     -0.125106     -0.551661
O       5.65355      1.90559      4.62593         0.317305     -0.192983      0.036963
O       5.74077     13.24260      4.70882        -0.305730      0.660149      0.024002
O       5.57919      1.85310      8.84663        -0.241537      0.438477      0.893248
O       5.75845     13.25965      8.84056        -0.166757      0.086886      0.649650
O       5.61663      5.73844      0.31758         0.195376      0.043661      1.703204
O       5.71361      5.89712     13.03072        -0.179677     -0.856478      1.017726
O       5.74081      5.84697      4.68901        -0.808303     -0.601181     -0.429103
O       5.69718      5.66275      8.94926        -0.052765     -0.010211      0.441373
O       5.51908      9.44140      0.40896         0.533353     -0.064182     -0.284058
O       5.59190      9.66556     13.12493         0.551102     -0.719249      0.513851
O       5.63690      9.34830      4.61469        -0.100723      0.443687      1.478836
O       5.58580      9.53142      8.98463         0.634681      0.008069      0.354634
O       9.40703      1.75302      0.31358         0.275511      0.518667      1.692419
O       9.46929      1.86579     13.14166        -0.167327      0.127699      0.304829
O       9.48098     13.38520      0.37237         0.158503      0.217435     -0.472584
O       9.52599     13.16806     13.17431         0.035306      0.194647      0.760574
O       9.40184      1.91933      4.80796        -0.175362      0.086137     -0.804585
O       9.57614     13.26489      4.73770        -0.162813      0.243576     -0.612529
O       9.50154      1.72999      8.90825         0.184246      0.340986     -0.032764
O       9.66947     13.39459      8.77940        -0.165154     -0.360057      1.637366
O       9.42374      5.63546      0.43400        -0.209474      0.450084      0.633662
O       9.40177      5.65713     13.04900        -0.048484      0.067421      1.695271
O       9.56362      5.57517      4.66078        -0.741828     -0.325526      0.356958
O       9.56033      5.70228      8.92985        -0.440541      0.082919      0.876397
O       9.50823      9.49973      0.65792        -0.104865     -0.258510     -0.019640
O       9.50543      9.67870     13.26355         0.004791     -0.225599     -0.169350
O       9.56046      9.67040      4.64742        -0.183667     -0.380893      0.582809
O       9.41669      9.36465      8.82765         0.224947      0.302489      1.429657
O       3.76727      1.99717      2.68845         0.364714     -0.708334     -1.001502
O       3.62887      2.09794     15.29501         1.152703     -0.092187     -0.077356
O       3.81794     13.30913      2.55771        -0.123318      0.067681     -0.085535
O       3.77017     13.19839     15.16446        -0.312480      0.033081      0.416958
O      15.11356      1.91912      2.59214         1.292078      0.373959      0.238994
O      15.14029      1.84939     15.43828         0.474991      0.288735     -0.062255
O      15.19299     13.22367      2.43211         0.353936      0.053001      0.458786
O       0.01482     13.40514     15.42140        -0.591726     -0.236673     -0.293369
O       3.76009      1.97598      6.70205        -0.669505     -0.378743     -0.046462
O       3.81424     13.36252      6.83645        -0.314781      0.272541     -0.248758
O      15.15199      2.01948      6.77421         0.461696     -0.438116     -0.481430
O       0.12014     13.24135      6.88818        -1.218330      0.010186     -0.209948
O       3.79135      2.03002     11.27187        -0.717809     -0.098544     -0.865045
O       3.82591     13.29481     11.00111         0.660783     -0.279052      0.005407
O      15.08017      1.84382     11.13283         0.917192      0.065977     -0.264509
O       0.03181     13.39776     11.00421        -0.649201     -0.402805     -0.627124
O       3.76095      5.67161      2.52521         0.790881      0.417407      0.184487
O       3.72514      5.72484     15.15762         0.867478     -0.164326      0.241976
O      15.07301      5.65246      2.52900         1.051649      0.079570      0.177464
O      15.13861      5.80900     15.34405        -0.432592      0.483433      0.245595
O       3.76230      5.58397      6.97793        -0.532998      0.473762     -0.535721
O      15.15192      5.67602      6.61776        -0.278089     -0.144631      0.212774
O       3.78212      5.49237     11.00492        -0.938461     -0.022424      0.297778
O      15.13620      6.00195     11.04788         0.508270     -0.703733     -0.275673
O       3.84936      9.45533      2.65055        -1.300852     -0.170187     -0.432973
O       3.80694      9.51987     15.24021        -0.894860     -0.035266     -0.085043
O      15.19287      9.62582      2.60942         0.131116     -0.630536     -0.734144
O      15.17235      9.34422     15.28028         0.411037     -0.193743      0.538510
O       3.80059      9.36985      6.81440        -0.333864      0.308301      0.082922
O      15.14160      9.42589      6.79551         0.913964      0.464694      0.477679
O       3.83598      9.69178     11.17031        -0.086475     -0.264832     -0.391245
O      15.16281      9.56918     11.09613         0.269973     -0.483946     -0.001817
O       7.58250      1.74946      2.66603        -0.195585      0.680579     -0.736245
O       7.60078      1.75798     15.40275        -0.733350      0.293505     -0.675155
O       7.64845     13.39602      2.51622        -0.476069      0.056186      0.143091
O       7.60294     13.46041     15.20128        -0.333686     -0.363554      0.164754
O       7.53452      1.85148      7.03869        -0.607957      0.835934     -0.870886
O       7.56872     13.32616      6.89811         1.076223     -0.683648     -0.193863
O       7.59677      1.74210     11.02051        -0.935147      0.201060     -0.037585
O       7.72713     13.34881     11.06321        -1.086420      0.369755     -0.211576
O       7.47916      5.73392      2.72745         1.123270     -0.421067     -0.649473
O       7.56338      5.75560     15.30816        -0.027494      0.137756     -0.072522
O       7.52682      5.68195      6.90723        -0.034835      0.064805     -0.239293
O       7.60326      5.88582     11.00870         0.135902     -0.100769      0.031795
O       7.55624      9.51249      2.73719        -0.065279     -0.000669     -0.594282
O       7.61558      9.47922     15.39381        -0.701187      0.076683     -0.199470
O       7.57589      9.46717      6.82557        -0.595315      0.098348     -0.272555
O       7.65799      9.43848     11.20627        -0.934817     -0.185817     -0.307531
O      11.39039      1.84478      2.63026        -1.403922      0.474461     -0.006920
O      11.36617      1.95977     15.28814        -0.651636     -0.133817      0.160010
O      11.45501     13.38667      2.58898        -0.371703      0.043198     -0.038054
O      11.41462     13.22303     15.28478        -0.395922      0.338627     -0.128166
O      11.31957      1.94701      6.80340        -0.135166     -0.281277      0.403418
O      11.42130     13.20446      6.85044         0.589543      0.368731     -0.494679
O      11.40822      1.95450     11.08887         0.029206      0.256858     -0.240085
O      11.39434     13.16759     11.28099         0.429960      0.696720     -0.806464
O      11.27477      5.73251      2.53902        -0.359259     -0.370866      0.094144
O      11.27639      5.57019     15.31322         0.819354      0.118649     -0.150623
O      11.26300      5.75278      6.80382         1.123022     -0.772480     -0.262023
O      11.41410      5.65854     11.24954        -0.265588     -0.139898     -0.954819
O      11.37163      9.56492      2.65037         0.810718     -0.337099      0.039583
O      11.34940      9.62154     15.56980         0.064801     -0.892009     -0.880110
O      11.41703      9.63323      6.81606        -0.575298     -0.721784     -0.135695
O      11.35897      9.65550     11.23042         0.379161     -0.480862     -0.312161
O       1.94811      3.84494      2.60659        -0.631763     -0.902070     -0.097919
O       1.66667      3.89848     15.35248         0.627782     -1.235172     -0.262160
O       1.83944     15.16554      2.30513         0.187112      0.225857      0.805729
O       2.00724      0.00796     15.31689        -0.403781      0.279327      0.241276
O      13.22299      3.83865      2.70896        -0.192896     -1.142255      0.101362
O      13.30465      3.79259     15.33409        -0.019133      0.632542      0.096766
O      13.34550     15.17197      2.37622         0.254177     -0.260511      0.735560
O      13.30863      0.02661     15.38608        -0.628300     -0.483152     -0.097887
O       1.86249      3.74616      6.74267         0.153361      0.345961      0.032408
O       1.77909      0.08039      6.70932         0.656124     -0.306380     -0.166171
O      13.19430      3.77433      6.91343        -0.360704      0.806797     -0.702479
O      13.26873     15.14643      6.96279         0.240695      0.479357     -0.630775
O       1.72113      3.82116     11.13252        -0.064597     -0.252531      0.129121
O       2.00032      0.03673     10.99283        -0.406690      0.296655     -0.042632
O      13.34484      3.85190     11.03332         0.206396     -0.045267     -0.109992
O      13.18020     15.18771     11.09566        -0.063918      0.213829     -0.585301
O       1.78768      7.57823      2.54995         0.314584      0.507042     -0.401245
O       1.94170      7.66358     15.33675         0.030800     -1.288287      0.274897
O      13.24599      7.58537      2.47118         0.042365      0.314463      0.357821
O      13.06602      7.52904     15.39322         0.112831      0.517796      0.361559
O       1.87975      7.54783      6.75490         0.162196     -0.433481      0.629439
O      13.21694      7.63984      6.70257        -0.180361     -1.135978      0.012367
O       2.02233      7.69113     11.12193         0.009300     -1.284091     -0.091563
O      13.17715      7.62298     11.06881        -0.093695      0.249638      0.124975
O       1.96329     11.36535      2.65777         0.058696     -0.032059     -0.304830
O       1.76070     11.39096     15.27053         0.029578     -0.420614     -0.139839
O      13.25440     11.46988      2.56301         0.080937     -1.565212      0.190005
O      13.34861     11.34610     15.22951         0.229509      0.854074      0.296195
O       2.02871     11.33109      6.80624        -0.626030      0.331826     -0.205591
O      13.32128     11.36565      6.83483         0.434674      0.359306      0.118891
O       1.89481     11.46867     11.03066        -0.375925      0.031533     -0.046752
O      13.23107     11.44475     11.03748         0.969168     -0.485012      0.150293
O       5.73359      3.77662      2.61142         0.111454      0.957539      0.033988
O       5.84025      3.79274     15.10730        -0.511843      0.847641      0.197129
O       5.62075      0.01939      2.33354        -0.199304      0.524919      0.969285
O       5.46995      0.01754     15.28048         0.331880     -0.340330      0.400434
O       5.63845      3.84358      6.72827         0.551409     -1.104576      0.179497
O       5.77536      0.03615      6.79432        -0.920311      0.190141     -0.248719
O       5.81468      3.76073     11.01019         0.209919     -0.114952      0.203103
O       5.62732     15.17150     11.04470         0.128935      0.643966     -0.193922
O       5.71146      7.57104      2.52145        -0.311406      0.351753     -0.065944
O       5.73206      7.64121     15.20232        -0.424543     -0.753265      0.084138
O       5.65697      7.55045      6.95538        -0.010351      0.440690     -0.427230
O       5.42030      7.60389     11.06084         0.690358      0.760538     -0.215982
O       5.70426     11.46691      2.61115         0.144086     -0.858725     -0.600925
O       5.69064     11.40009     15.48723         0.586549     -0.228696     -1.190580
O       5.60647     11.37641      6.77935         0.205161     -0.568615     -0.095347
O       5.86765     11.44315     11.16201        -0.370118      0.070785     -0.466283
O       9.33087      3.73867      2.55407         0.279153      0.377688     -0.047912
O       9.33904      3.77808     15.34856         0.114510      0.086432     -0.341621
O       9.56796      0.03661      2.72533        -0.437127      0.041660     -0.525641
O       9.56036      0.00144     15.30540         0.288228     -0.031767     -0.326310
O       9.40090      3.79476      6.97860         0.109576     -0.045193     -0.292066
O       9.41596     15.16085      6.80314         0.375203      0.918733     -0.120863
O       9.33686      3.71952     11.00175         0.441865      0.752730     -0.075884
O       9.59765     15.16349     11.08096         0.345663     -0.175685      0.188517
O       9.43717      7.52595      2.79298         0.008044      0.330171     -0.595965
O       9.55483      7.61124     15.26914        -0.198912     -0.347916      0.215537
O       9.53327      7.59737      6.65480        -0.345480     -0.076438      0.076406
O       9.60379      7.65775     11.13254        -0.266858     -0.943390     -0.088475
O       9.55817     11.51484      2.65283        -0.295096     -0.539809     -0.330171
O       9.44541     11.44599     15.48191        -0.252467     -0.179024     -0.242142
O       9.51482     11.37339      6.92314        -0.570754      0.176951     -0.129918
O       9.43831     11.40372     10.87606        -0.380371     -1.092100      0.121213
