  # total energy = -7873.77105099 
CRSYTAL
PRIMVEC
    15.2000000000000000    0.0000000000000000    0.0000000000000000
     0.0000000000000000   15.2000000000000000    0.0000000000000000
     0.0000000000000000    0.0000000000000000    17.000000000000000
PRESSURE
7.83605 7.90651 5.29698 0.155848 -0.080124 -0.06722
PRIMCOORD
320 1
Pb       3.60947      3.86435      4.34806         0.356646     -0.017575     -0.616322
Pb       4.02432      3.92936     16.98431        -1.145808     -0.449345      0.653342
Pb       3.61731      0.25095      4.36434        -0.017778     -0.772393     -0.746611
Pb       3.88876     15.15102     16.92867        -0.270260      0.058449     -0.214884
Pb       0.09747      3.90554      4.21220        -0.552359     -0.550673     -0.168654
Pb       0.24612      3.95409     16.92533        -1.480961     -1.169319      0.184847
Pb      15.13607      0.28141      4.57412        -0.047350     -0.532638     -1.187573
Pb       0.08222     15.05293     16.96141        -0.255588      0.525141     -0.499909
Pb       3.98672      3.89771      8.35279        -0.590946     -0.145839      0.067578
Pb       3.86334     14.97429      8.76675        -0.418799      0.104347     -0.400748
Pb       0.18580      3.58417      8.71923        -0.659234      1.313430     -0.818944
Pb      14.83896     15.13672      8.49065         0.895348     -0.651625     -0.063978
Pb       3.85281      3.59791     12.52185         0.267125      1.139213      0.398370
Pb       3.81599      0.06568     12.88981         0.083822     -0.456962     -0.420985
Pb      15.13367      3.91147     12.68620        -0.032397     -1.514747      0.144451
Pb       0.09796     15.19200     12.92866        -0.522041     -0.051545     -0.814854
Pb       3.69754      7.66098      4.37485        -0.140130     -0.013356     -0.573892
Pb       3.71841      7.64401     16.95548         1.156106      0.003310      0.401854
Pb      15.04148      7.84914      4.39856         0.496819     -0.391874     -0.856884
Pb      15.07006      7.43218     16.84236         0.274321      0.893706      0.401742
Pb       3.87838      7.58225      8.30345        -0.691194      0.039970      0.368495
Pb      15.02243      7.50392      8.48881         0.431828     -0.013986      0.876737
Pb       3.64350      7.42667     12.66141         0.847706      0.306717     -0.936665
Pb       0.02128      7.40433     12.81649        -0.266389      0.530608     -0.966549
Pb       3.49047     11.48549      4.39419         0.447846     -0.445178     -0.707103
Pb       4.10222     11.45365      0.29223        -0.669631     -0.282190     -0.486605
Pb      15.14036     11.49664      4.22142        -0.051748     -0.084043     -0.230382
Pb       0.14786     11.34298     16.84793        -0.208639      0.526386      0.030527
Pb       3.62742     11.38951      8.57187         0.704594     -0.147418      0.245148
Pb      15.10182     11.37073      8.63461        -0.035885     -0.010954     -0.060217
Pb       3.69668     11.26470     12.69100         0.307232      0.105040     -0.602761
Pb      15.10817     10.95851     13.05285         0.486053      1.252519     -1.793312
Pb       7.55450      3.84353      4.29667        -0.173588     -0.270220     -0.485335
Pb       7.60198      3.79613      0.15574        -0.129579     -0.013548     -0.575630
Pb       7.55009     15.07954      4.24489         0.379314      0.154585      0.016721
Pb       7.69868     15.06854     16.96781        -0.461536      0.199503     -0.408774
Pb       7.71723      3.56760      8.40785        -0.724547      0.822586     -0.093187
Pb       7.66811      0.03054      8.55452        -0.312270     -0.313258     -1.116387
Pb       7.73141      3.75228     12.79770        -1.222851      0.494339     -0.532713
Pb       7.58504     15.08097     12.88799        -0.149183      0.115543     -0.557998
Pb       7.76560      7.46300      4.02553        -0.703527      0.555601      1.299876
Pb       7.70231      7.73057      0.18055        -1.266632     -0.286648     -1.242945
Pb       7.52492      7.64014      8.23833        -0.062660      0.122791      0.509499
Pb       7.43415      7.63356     12.63321         0.351933     -0.531805     -0.081477
Pb       7.44516     11.36444      4.31300         0.712694      0.149441     -0.081184
Pb       7.51336     11.49904      0.01793         0.603544     -0.485771     -0.450058
Pb       7.61116     11.53475      8.67827        -0.409787     -0.347385     -1.381361
Pb       7.61546     11.33999     12.73599        -0.261712      0.295850     -0.550331
Pb      11.36421      4.05447      4.05570         0.084692     -1.537081      0.394406
Pb      11.29559      3.59325     16.95874         0.605433      0.135923      0.105899
Pb      11.52320     15.13781      4.10566        -0.361678      0.383088      0.371990
Pb      11.44100     15.18787     16.97823         0.077832      0.105319     -0.066212
Pb      11.48059      3.79688      8.46393        -0.117219     -0.029405      0.274235
Pb      11.33224      0.04062      8.45550        -0.321787     -0.009294     -0.252437
Pb      11.25469      3.60034     12.80624         1.042458      0.264495     -0.734922
Pb      11.38793     15.19922     12.64005         0.404321      0.039640      0.289329
Pb      11.52035      7.49473      4.06265        -0.952355      1.333479      0.802847
Pb      11.42511      7.57325     16.92744        -0.158056      0.319902     -0.330482
Pb      11.27807      7.50015      8.73758         0.541159      0.264878     -0.766050
Pb      11.38237      7.63647     12.99215        -0.261773     -0.205566     -1.026425
Pb      11.37291     11.28508      4.16917        -0.463174      0.017246     -0.190992
Pb      11.50490     11.45842     16.66989        -0.504632     -0.289335      1.010096
Pb      11.30733     11.41973      8.53607        -0.149172     -0.275736     -0.431104
Pb      11.23064     11.14905     12.44118         0.680990      0.822188      1.129905
Ti       1.85122      1.86743      1.99231         0.242932      0.150434      0.968711
Ti       1.89539      1.96752     14.87717        -0.188042     -1.260707      1.347984
Ti       1.87054     13.29036      2.14936         0.363065      0.585080      0.801959
Ti       1.89961     13.28670     14.85384         0.480449     -0.427049      1.030348
Ti      13.33441      1.92957      2.07759        -0.598492     -0.525871      0.322168
Ti      13.33909      1.84033     14.91872         0.437828      0.552026      0.838438
Ti      13.37956     13.27805      2.15776        -0.357564      1.058735      1.367391
Ti      13.36970     13.31802     14.84113         0.507725     -0.693856      0.333023
Ti       1.86788      1.86393      6.62798         0.289803      0.948042     -0.278472
Ti       1.84109     13.32138      6.66745        -0.850228     -0.152077      0.433276
Ti      13.17030      1.98372      6.41909         0.418375     -0.259174      0.950215
Ti      13.13714     13.23085      6.55369         1.129009      0.154141      0.352664
Ti       1.89391      1.80325     10.64518         0.060242     -0.336538      0.645880
Ti       1.77936     13.21559     10.89050        -0.030629     -0.177578     -0.777008
Ti      13.31099      1.80449     10.57828        -0.852297      0.726659      1.622421
Ti      13.27434     13.15109     10.82391         0.509886      0.181659      0.464734
Ti       1.77620      5.74311      2.26418         1.619590      0.841995      0.416799
Ti       1.96665      5.65552     14.96961        -0.222260      0.167960     -0.081020
Ti      13.34544      5.75181      2.09947        -1.110095     -0.086893      0.178526
Ti      13.21831      5.60513     14.88303         0.000620     -0.067412      1.882077
Ti       1.69368      5.73670      6.50554         0.418489     -0.669306      1.056971
Ti      13.17887      5.70531      6.45059         0.991708      0.991940      0.718957
Ti       1.87574      5.61446     10.63106         0.680628      0.993002      0.672904
Ti      13.15553      5.63773     10.84030         0.116903     -0.112398     -1.100866
Ti       1.75658      9.46085      2.02490         0.641696      0.220880      2.553588
Ti       1.97482      9.38107     14.95515         0.375345      1.489919      0.153467
Ti      13.20856      9.54878      1.96201         0.682458     -0.313312      1.413282
Ti      13.33542      9.48666     14.93486        -1.843143     -0.385084     -0.545820
Ti       1.74437      9.53719      6.57119         1.400803     -0.133930      0.253018
Ti      13.20350      9.49850      6.46203        -0.182018     -0.459922      2.222562
Ti       1.81735      9.37934     10.61453        -0.142740      0.368235      1.129166
Ti      13.22987      9.35288     10.70515         0.989111      0.484863      1.045974
Ti       5.60759      1.84374      2.21349         0.492498      0.702532      1.004560
Ti       5.69718      1.88223     15.08274        -0.332547     -0.159607     -0.077274
Ti       5.67875     13.31747      2.34334         0.160167     -0.208181      0.176308
Ti       5.67498     13.23551     14.92958        -0.014440      0.582493     -0.057857
Ti       5.61437      1.84716      6.40047         0.817197      0.661600      0.453753
Ti       5.56759     13.33173      6.45798         1.881467     -1.019217      0.122682
Ti       5.72058      1.86927     10.59208         0.297678      0.951662      0.948983
Ti       5.61448     13.29499     10.80394        -0.149665     -1.109080     -0.188287
Ti       5.65074      5.63191      2.31547        -0.666686      1.206235      2.536611
Ti       5.70386      5.73342     14.87988         0.813487      0.429177      0.631981
Ti       5.70502      5.73316      6.40682         0.065189     -0.306525      1.084855
Ti       5.82031      5.67384     10.54327        -1.522016     -0.241224      2.320973
Ti       5.54002      9.47608      2.39857         0.011314     -0.166955      0.292921
Ti       5.65896      9.48988     14.79762         0.835964     -0.961285      1.400796
Ti       5.65765      9.61986      6.39422         0.440014     -0.721868      2.419395
Ti       5.65965      9.43113     10.50907        -0.887773      0.649876      1.405339
Ti       9.46200      1.88429      2.28610         0.528286     -0.033824      0.054547
Ti       9.46510      1.86557     14.94235        -0.009148     -0.432234      0.876609
Ti       9.57748     13.26340      2.17389        -0.323343      0.001696      1.783525
Ti       9.59019     13.24216     14.85451        -1.334130      0.041979      0.371640
Ti       9.49600      1.89211      6.30934        -0.312669     -0.970486      0.652608
Ti       9.45115     13.26037      6.47871        -0.585427     -0.578967      0.420391
Ti       9.46014      1.89878     10.73428         0.240150     -0.537633      0.056001
Ti       9.48822     13.40807     10.64267         0.128079     -1.487457      2.156014
Ti       9.50855      5.69457      2.01508        -0.372126     -0.075934      2.237472
Ti       9.48737      5.62261     14.97008        -1.166976      0.977356      0.617367
Ti       9.47148      5.60215      6.50753        -0.539407      1.663116     -1.055712
Ti       9.43402      5.68785     10.59575        -0.117604      0.098117      1.679413
Ti       9.38144      9.51198      2.11047         1.123394      1.190489      0.926978
Ti       9.38419      9.48743     14.91112         0.844316      0.610377      0.596097
Ti       9.52709      9.35299      6.43300        -1.205388      2.173406      0.197095
Ti       9.34551      9.50314     10.56762         1.045656     -0.923088      0.776094
O       1.79832      2.07474      0.20676         0.160180     -0.627586      1.207739
O       1.99393      1.91117     13.12030        -0.302798     -0.069186     -1.390621
O       1.76623     13.23177      0.40003         0.381110      0.165131     -0.563190
O       1.90406     13.34469     13.10439        -0.154659     -0.007823     -0.698549
O      13.28030      1.74006      0.28313        -0.050615      0.272349      0.378387
O      13.25226      1.78487     13.18991        -0.014947      0.285643     -0.934461
O      13.40568     13.45524      0.44391        -0.209665     -0.302014     -1.534038
O      13.42265     13.16028     13.12633        -0.387441      0.311189     -0.499220
O       2.00466      1.93708      4.74709        -0.650034      0.133805      0.431288
O       1.94481     13.31076      4.90367        -0.263588     -0.346221     -1.200682
O      13.18932      1.88793      4.67453         0.405525      0.046775     -0.631600
O      13.27125     13.35376      4.82083         0.019710     -0.328997     -1.190900
O       1.83271      1.85334      8.87240         0.156386     -0.269606     -0.852920
O       1.85361     13.27218      9.02733         0.151163      0.172897      0.034019
O      13.21611      1.94641      8.76853         0.340330     -0.235683      0.485672
O      13.31785     13.11935      9.00497        -0.134149      1.006692      0.060825
O       1.78804      5.68448      0.44748         0.270547      0.192619      0.246714
O       1.83732      5.70254     13.21213         0.204088     -0.046696     -0.725525
O      13.21811      5.92200      0.34108         0.222655     -0.567156     -0.387651
O      13.20377      5.76937     13.15432         0.211978     -0.285444     -1.751174
O       1.74504      5.68752      4.70932        -0.172203     -0.347972     -0.301811
O      13.26456      5.84789      4.68081         0.174548     -0.409544     -0.689788
O       1.73043      5.75854      8.92873         0.247600     -0.372367     -1.182841
O      13.14648      5.75927      9.01904        -0.418701     -0.543205      0.167169
O       1.89190      9.48285      0.28611         0.074489     -0.011706     -0.979070
O       1.96457      9.46539     13.16240        -0.145776     -0.727584      0.292026
O      13.27922      9.44264      0.21301        -0.038615      0.138194     -0.678769
O      13.17344      9.41838     13.02061         0.433040     -0.050732      1.665848
O       1.82814      9.63696      4.77795        -0.195558     -0.019964     -0.093046
O      13.35992      9.52571      4.73105        -0.357040      0.155951     -1.345645
O       1.75024      9.35777      8.87524         0.333453      0.295693     -0.799398
O      13.36695      9.37038      8.97315        -0.648861      0.167167     -1.240868
O       5.58057      1.74379      0.44596         0.460738      0.561199     -1.026750
O       5.61452      1.81609     13.31652         0.323805      0.289631     -0.628912
O       5.76967     13.30384      0.48524        -0.168034     -0.212010     -0.480420
O       5.62312     13.39705     13.17282         0.429630     -0.131541     -1.100911
O       5.63607      1.89270      4.61145        -0.143575     -0.071733      0.291270
O       5.73349     13.25932      4.64925        -0.326408      0.388785      0.267218
O       5.75159      1.95291      8.83253        -0.211254     -0.328819     -0.257135
O       5.53132     13.20801      8.97892         0.291275      0.615992      0.632377
O       5.72468      5.71462      0.63825        -0.603012     -0.129613     -3.249361
O       5.67707      5.69680     13.16193        -0.260232     -0.022487     -0.971354
O       5.85515      5.82606      4.69284        -0.267778     -0.542150     -2.090283
O       5.82804      5.64375      8.83238        -0.189961      0.009592     -1.628480
O       5.55880      9.55208      0.62493         0.241844      0.137164     -1.431302
O       5.60637      9.42228     13.07395         0.223595      0.032032     -0.986870
O       5.61396      9.54113      4.66497        -0.088794      0.099165     -1.898737
O       5.79793      9.54554      8.76147        -0.576751     -0.289090      0.533773
O       9.55934      1.96351      0.45829        -0.220756     -0.566756     -0.228950
O       9.39618      1.92769     13.13743         0.260022      0.057839      0.148181
O       9.56927     13.25513      0.42694        -0.398181      0.312357     -1.012753
O       9.39882     13.26469     13.11314         0.121962     -0.173531     -0.113828
O       9.43951      1.97477      4.56112         0.250795      0.116812     -0.427959
O       9.36840     13.32597      4.73291         0.499279     -0.222451     -0.951752
O       9.36657      1.69081      8.97259         0.380710      0.520548     -0.584778
O       9.48718     13.33488      8.90388        -0.021917      0.275702     -0.837294
O       9.43915      5.77985      0.29931         0.235868     -0.038557     -1.579906
O       9.59492      5.42629     13.24023        -0.541416      0.260964     -0.924588
O       9.45952      5.70263      4.66039         0.126931     -0.456042      0.363588
O       9.53615      5.58674      8.85789        -0.067091      0.194429     -1.092432
O       9.34920      9.48525      0.32550         0.296622      0.155775      0.050557
O       9.43435      9.59617     13.12986        -0.209867     -0.362425     -0.774119
O       9.53492      9.49081      4.67025        -0.005975     -0.013717     -0.599393
O       9.41185      9.66583      8.83331         0.025521     -0.944634     -0.180787
O       3.74291      2.00950      2.43225        -0.349757     -0.118455      0.403177
O       3.75024      1.79974     15.29648         0.453243      0.398087      0.302611
O       3.83472     13.30815      2.44679        -1.272186     -0.336727      0.199256
O       3.79015     13.33652     15.21626        -0.473543     -0.163969      0.629357
O       0.02102      1.84983      2.58609         0.131086      0.248768     -0.062689
O       0.00371      2.00799     15.11233        -0.015586     -0.248860      0.268529
O       0.00753     13.37155      2.61601         0.438313     -0.114077      0.212831
O       0.03359     13.24575     15.33853         0.167680      0.224285     -0.008091
O       3.76522      1.96769      6.76788         0.493965     -0.416810      0.180342
O       3.77965     13.33846      6.95788        -0.660456      0.121005      0.024562
O      15.12907      1.92529      6.62628        -0.057661     -0.066123      0.480185
O      15.10714     13.12969      6.96440         0.097041      0.914119     -0.243431
O       3.81400      1.85391     11.00487        -0.315528     -0.120963     -0.093746
O       3.72651     13.25177     11.11354         0.528683      0.580396      0.041866
O      15.16277      1.98731     10.86324         0.344535     -0.032753      0.398421
O      15.12527     13.15685     11.24857         0.185303      0.402890     -0.634784
O       3.71180      5.76519      2.74286         0.233066     -0.367512     -0.302312
O       3.80325      5.77616     15.35337        -0.299812     -0.413297      0.177972
O      15.09669      5.83002      2.59812         1.776747     -0.084901      0.078634
O      15.16338      5.75305     15.28806         0.058529     -0.116389     -0.377162
O       3.77519      5.78162      6.73919        -0.486561     -0.548571      0.069234
O      15.03209      5.59601      6.97720         1.136478     -0.242757     -0.745650
O       3.79852      5.79426     10.87854        -0.386479     -0.165515      0.353062
O      15.12986      5.48079     11.10634         0.063061      0.534926     -0.127878
O       3.64019      9.52352      2.60265         0.677354      0.110671      0.000793
O       3.87143      9.44293     15.31240        -1.510691     -0.002546      0.175669
O      15.13317      9.50583      2.52448         0.214001      0.029092     -0.186257
O      15.19168      9.42120     15.10647         0.545673     -0.548433      0.213081
O       3.72414      9.36749      6.83900         0.246746      0.560008     -0.179064
O      15.14478      9.58530      6.81052        -0.737186      0.184079      0.036450
O       3.74987      9.31165     10.93241         0.136968     -0.045977     -0.078591
O      15.15933      9.57760     11.03961        -0.249988     -0.340449      0.469559
O       7.59219      2.03493      2.54202         0.037625     -0.558585     -0.248746
O       7.61662      1.89074     15.37325        -0.405528     -0.126797      0.109847
O       7.61298     13.29812      2.62660         0.693218      0.204389     -0.414356
O       7.57736     13.39777     15.19175         0.553926     -0.396991      0.622109
O       7.58831      1.88548      6.78813         0.124067      0.192268     -0.295672
O       7.58673     13.20471      6.89151        -0.785154      0.275314      0.060422
O       7.55913      1.85955     11.01478        -0.186794      0.081415      0.369648
O       7.60219     13.12612     11.02011        -0.892830      0.811954      0.054201
O       7.63244      5.65465      2.37655         0.626553      0.221883      0.711012
O       7.54429      5.64730     15.21412         0.994029     -0.030656      0.415967
O       7.53867      5.57366      6.78454         1.721141      0.174160      0.207622
O       7.56785      5.58735     11.21231         1.199367     -0.006785     -0.302564
O       7.58034      9.65239      2.49650         0.166289     -0.597523      0.118131
O       7.58212      9.52001     15.25260        -1.112971      0.125676      0.278251
O       7.53795      9.61066      6.79454         0.290159     -0.272586     -0.404502
O       7.55326      9.63888     11.01840        -0.803142     -0.470031      0.098895
O      11.43428      2.03564      2.48557         0.488228     -0.221300      0.001856
O      11.38466      1.80255     15.27144        -0.408408      0.426405      0.225658
O      11.46877     13.34918      2.57602        -0.438949     -0.507097     -0.068639
O      11.48075     13.32775     15.17253        -0.465520     -0.230980      0.310917
O      11.33137      1.83656      6.84208        -0.389929      0.177686     -0.010578
O      11.32329     13.36810      6.99582         0.040554     -0.226729     -0.186648
O      11.37041      1.88556     11.01970        -0.343234     -0.677338      0.097790
O      11.38451     13.36615     11.21385        -0.522366     -0.393038     -0.781880
O      11.42286      5.77281      2.56242        -0.123775     -0.099121     -0.890628
O      11.36643      5.72725     15.22064        -0.157212     -0.145863      0.584999
O      11.33802      5.88417      6.75267        -0.007118     -0.249305      0.452549
O      11.27523      5.86939     11.09686         0.113197     -0.604967      0.020420
O      11.41374      9.46794      2.45264        -0.524476      0.485564     -0.045514
O      11.40241      9.75423     15.16003        -0.033088     -0.892695     -0.036829
O      11.34107      9.27332      6.79285         0.993391      0.123951      0.312609
O      11.31400      9.21681     10.98045        -0.643470      0.614898      0.024857
O       1.88816      3.83237      2.59540        -0.767872     -0.060770     -0.087825
O       1.80523      3.81196     15.22825         0.854539      0.974100      0.122360
O       2.00668      0.01819      2.54163        -0.279919      0.463500     -0.386972
O       1.82620     15.18838     15.19080        -0.229425      0.229779      0.086352
O      13.43228      3.87055      2.27305        -0.376023     -0.329226      0.522318
O      13.21915      3.79803     15.17463        -0.012056     -0.192015      0.205375
O      13.24989      0.03134      2.56023         0.297930      0.284124     -0.028078
O      13.54068     15.14467     15.15240        -0.642646      0.302133      0.412231
O       1.90371      3.83845      6.98546        -0.215565     -0.390280     -0.381080
O       1.83979      0.01268      6.75400        -0.214720      0.120448      0.583405
O      13.09924      3.84846      6.75118        -0.108507     -0.543923     -0.131136
O      13.15936     15.18075      6.86225         0.858304      0.329321      0.027618
O       1.99418      3.74874     10.91642        -0.438801     -0.244052      0.333916
O       1.80408     15.15135     11.01443         0.065243      0.871603      0.373638
O      13.13499      3.68308     11.13529         0.094647      0.766199     -0.043566
O      13.23954      0.00210     11.14898         0.659614     -0.151041     -0.858056
O       1.95285      7.65045      2.67748        -0.892145     -0.253755     -0.681197
O       1.93990      7.54134     15.43953        -0.478471      0.337300     -0.721011
O      13.23591      7.68504      2.48595         0.516686     -0.211320      0.001242
O      13.16371      7.60381     15.29351         0.154263      0.290134     -0.489265
O       1.79021      7.55261      6.79566        -0.367562      0.705638     -0.143240
O      13.46514      7.61256      6.88678        -1.006717      0.010571     -1.077440
O       1.63381      7.52234     11.12668         0.638034     -0.141066      0.084108
O      13.35909      7.49670     11.04956         0.324511      0.165753      0.516008
O       1.90827     11.42246      2.48987        -0.388230     -0.247678      0.332816
O       1.76709     11.35409     15.08183         0.464477     -0.512908      0.505683
O      13.34799     11.41066      2.50043        -0.260442     -0.300489      0.026352
O      13.48759     11.37317     15.35372        -0.491609      0.273244     -0.462366
O       1.92363     11.42616      7.01900        -0.041404     -0.585318     -0.594205
O      13.09186     11.36198      6.90909         0.054582     -0.502471     -0.235377
O       1.90454     11.32300     11.06419         0.330207     -0.424086     -0.029644
O      13.14679     11.30069     10.99567        -0.320294     -0.121223      0.038665
O       5.74609      3.80607      2.58962        -0.546918     -0.647726      0.179812
O       5.58531      3.82208     15.43180         0.840862     -0.620574     -0.366832
O       5.63542      0.02349      2.61615         0.405522      0.005230      0.138110
O       5.67921     15.15058     15.35709         0.125887      0.642818      0.374489
O       5.72231      3.81975      6.71816        -0.544590     -1.165882      0.026224
O       5.71050     15.16902      6.83556        -0.182081      0.606908     -0.049010
O       5.68695      3.83640     11.02187        -0.338975     -1.545207     -0.074907
O       5.59022      0.03567     11.04433         0.508010     -0.974667     -0.162601
O       5.76725      7.62085      2.59462        -0.185466     -0.047912      0.247817
O       5.77527      7.60332     15.21250        -0.383324      0.236051      0.454399
O       5.70763      7.59243      6.77088         0.148862      0.733070      0.101137
O       5.76618      7.52564     11.00251         0.306763      1.219535     -0.265753
O       5.68644     11.42382      2.58044        -0.280676      0.042947      0.107149
O       5.65315     11.38149     15.15510         0.310629     -0.066972      0.861472
O       5.58429     11.42918      6.78365        -0.371123      0.417839     -0.156827
O       5.52862     11.33234     11.01700         0.314880      0.010984      0.161632
O       9.62437      3.86178      2.42874        -0.412080      0.256132     -0.000110
O       9.37642      3.78518     15.45926         0.917934     -0.681262     -0.358449
O       9.60240      0.01038      2.56418        -0.526978     -0.083138     -0.275742
O       9.48970     15.17404     15.19787        -0.052616      0.077976      0.426160
O       9.57639      3.78566      6.80556        -0.054889     -1.016266     -0.003926
O       9.42598      0.01376      6.78907         0.066436      0.285356      0.136081
O       9.48869      3.72777     10.94196        -0.058523      0.934562      0.594714
O       9.40651     15.16638     11.15447        -0.029773      0.645692     -0.005319
O       9.47795      7.62464      2.47286         0.123118     -0.318052     -0.614012
O       9.55232      7.67762     15.19524         0.011228     -1.402025      0.211765
O       9.30766      7.54738      6.78548         0.155308     -0.500759      0.151586
O       9.27874      7.53728     10.84225        -0.274224      0.917817      0.092787
O       9.62562     11.40574      2.57135        -0.337626     -0.135641     -0.239335
O       9.37385     11.41755     15.34334         0.458600      0.868454     -0.106031
O       9.61820     11.35782      6.84440         0.049138      0.292598     -0.232645
O       9.48500     11.41925     10.92181         0.457240     -0.488997      0.128918
