  # total energy = -7866.39608530 
CRSYTAL
PRIMVEC
    15.010000000000000    0.0000000000000000    0.0000000000000000
     0.0000000000000000   15.010000000000000    0.0000000000000000
     0.0000000000000000    0.0000000000000000    16.400000000000000
PRESSURE
19.4745 19.4984 10.9464 0.393466 -0.146989 -0.04029
PRIMCOORD
320 1
Pb       3.87420      3.70196      4.19385        -0.471059      0.414791     -0.311999
Pb       3.78698      3.75650      0.04669        -0.611978      0.130331     -0.397124
Pb       3.71771      0.06679      4.09528        -0.167952     -0.505138      0.179874
Pb       3.78434      0.00579     16.36050        -0.601285     -0.169209      0.152716
Pb      14.94382      3.67609      4.07097         0.565097      0.210524      0.342898
Pb      15.00525      3.68619     16.34433         0.130306      0.522707      0.723616
Pb      14.95756      0.02233      4.14910         0.559071     -0.065966     -0.189094
Pb      14.93263     14.98125      0.00991         0.421364      0.505109     -0.078980
Pb       3.77008      3.68038      8.23645         0.056734      0.328795      0.445098
Pb       3.79232     14.95805      8.22773        -0.014185     -0.057948      0.189240
Pb       0.00190      3.73910      8.23039        -0.044097      0.082189      0.160203
Pb      14.95634     14.92946      8.15473         0.220649      0.751144      0.622294
Pb       3.78894      3.71469     12.24082        -0.053901      0.268773      0.260888
Pb       3.74671      0.00215     12.36618        -0.214500     -0.140070     -0.087107
Pb      15.00093      3.69912     12.28624         0.095948      0.317864      0.408782
Pb       0.00112      0.00196     12.27305        -0.264436     -0.268254      0.470216
Pb       3.64373      7.54103      4.06395         0.263675     -0.434025      0.496063
Pb       3.76065      7.44476      0.09416        -0.384375      0.380182     -0.155895
Pb      14.95263      7.48622      4.08066         0.514897      0.259034      0.402222
Pb      14.97723      7.49829      0.02620         0.208245      0.006625      0.043058
Pb       3.71494      7.55058      8.10278        -0.000264     -0.636357      0.687096
Pb      14.99531      7.52252      8.18099         0.141620     -0.387748      0.401754
Pb       3.74505      7.53349     12.28027         0.127198     -0.161009      0.077213
Pb       0.01209      7.40069     12.28977        -0.060494      0.756282      0.079276
Pb       3.65908     11.21114      4.12113        -0.038051      0.443644      0.482537
Pb       3.73963     11.11462     16.32790         0.186596      0.623881      0.865057
Pb      14.97624     11.21181      4.07169         0.340239      0.356824      0.810817
Pb      14.96101     11.32816      0.03155         0.335256     -0.959703     -0.278926
Pb       3.70679     11.14801      8.20091         0.221790      0.468851      0.165765
Pb      14.98481     11.18852      8.14693         0.288603      0.210863      0.810325
Pb       3.75403     11.26514     12.31308        -0.104656      0.096518      0.047722
Pb       0.00105     11.26106     12.29984        -0.364183     -0.040049     -0.029766
Pb       7.49745      3.71944      4.09953        -0.309252      0.072463      0.571517
Pb       7.48698      3.80241     16.35567         0.880579     -0.466403      0.303116
Pb       7.47947     14.91403      4.14429         0.233980      0.612295      0.031830
Pb       7.38792     14.99168     16.36469         0.961688     -0.083605      0.645022
Pb       7.49772      3.68829      8.20300         0.122079      0.144824      0.346185
Pb       7.49049     15.00932      8.22449         0.366292     -0.312710     -0.022674
Pb       7.46112      3.71797     12.27005         0.081970      0.415276      0.018389
Pb       7.53911     14.91191     12.33905        -0.430566      0.420280     -0.176499
Pb       7.37337      7.50769      4.01108         0.686249     -0.191644      1.211677
Pb       7.46369      7.44836     16.39842         0.625114      0.722019      0.259923
Pb       7.48294      7.49368      8.26899        -0.080638     -0.305599     -0.025431
Pb       7.53512      7.46664     12.38372        -0.196246     -0.500333     -0.083205
Pb       7.48414     11.29312      4.05570        -0.077454     -0.406782      1.067677
Pb       7.51108     11.24992      0.01075        -0.212109      0.393612      0.601938
Pb       7.45101     11.21414      8.19131         0.635990      0.632939      0.648284
Pb       7.52345     11.19873     12.29631        -0.678263      0.495505      0.537655
Pb      11.20055      3.74293      4.09150        -0.175167     -0.049401      0.462751
Pb      11.29246      3.78803     16.35938        -0.520933     -0.259698      0.818591
Pb      11.35002     14.96621      4.14725        -0.969098      0.382757      0.030207
Pb      11.16923     14.91870      0.02081        -0.426578      0.953477      0.802551
Pb      11.36372      3.73362      8.13992        -0.857901      0.493403      0.412178
Pb      11.30106     14.92512      8.20033        -0.761376      0.626832      0.407667
Pb      11.30108      3.70653     12.21163        -0.592930      0.714092      0.980673
Pb      11.27423      0.06653     12.27132         0.192900     -0.567663      0.279421
Pb      11.24283      7.46451      4.11423        -0.719440      0.441187      0.562908
Pb      11.17854      7.45897      0.04078         0.069860      0.168782      0.184526
Pb      11.15844      7.45536      8.17295         0.388594      0.142628      0.257292
Pb      11.26181      7.39852     12.27000         0.129245      0.100340      0.621591
Pb      11.27876     11.25423      4.10029        -0.393230      0.349945      0.587151
Pb      11.22498     11.18984     16.39773        -0.088492      0.350748      0.678625
Pb      11.16493     11.21923      8.22832         0.069706      0.026103      0.017576
Pb      11.20598     11.27649     12.25202         0.705091      0.001891      0.385630
Ti       1.91950      1.89120      2.20602        -0.463518      0.072503     -1.219433
Ti       1.93769      1.89321     14.54957        -0.866311      0.015378     -0.301391
Ti       1.83239     13.10546      2.06762        -0.045755      0.541321      1.053668
Ti       1.82674     13.15046     14.42979        -0.294283     -0.363619     -0.439353
Ti      13.08599      1.88597      2.15552        -0.121615      0.059728     -0.445025
Ti      13.12617      1.88050     14.42766        -0.228088     -0.729859      0.246303
Ti      13.15128     13.14636      2.13745        -0.870117     -0.463481     -0.706125
Ti      13.06279     13.13884     14.52904        -0.085807     -0.322904     -2.142254
Ti       1.89945      1.88173      6.30787        -2.220968     -0.099463     -0.951850
Ti       1.87893     13.14788      6.23976         0.476434     -1.511550     -0.057374
Ti      13.08318      1.91343      6.24277         0.555188      0.307621      0.100786
Ti      13.14562     13.12715      6.28226        -0.362613     -0.413303     -0.866334
Ti       1.83320      1.86082     10.35286        -0.045845      0.742118     -0.438268
Ti       1.84074     13.11275     10.27301        -0.504182      0.249230      1.529481
Ti      13.05581      1.94314     10.34899         0.022727     -0.960862     -0.549401
Ti      13.08617     13.11689     10.29278        -0.055529     -0.257667      0.538283
Ti       1.87341      5.61420      2.13642        -0.245491     -0.318931     -1.167876
Ti       1.85124      5.66844     14.37846         0.875922     -0.321401      1.758066
Ti      13.14393      5.63755      2.27095        -0.080995     -0.484501     -1.890588
Ti      13.12626      5.68855     14.51641         0.010964     -1.565543     -0.970579
Ti       1.89565      5.58123      6.20071        -0.753404      0.270383      0.454105
Ti      13.14701      5.69366      6.22769        -0.528074     -0.851892      0.723797
Ti       1.93210      5.62685     10.31990        -0.714775     -0.569948      0.778305
Ti      13.15549      5.65684     10.33174        -0.646624     -1.383077     -0.761930
Ti       1.79146      9.36780      2.13317         0.335783      0.455521     -1.276145
Ti       1.94772      9.38545     14.41073        -1.120534      0.488041     -0.485223
Ti      13.04917      9.38820      2.23465         0.100702      0.313459     -0.504157
Ti      13.11773      9.39032     14.44164         0.278426     -0.305579     -0.616597
Ti       1.91352      9.35461      6.23910        -0.364146      0.210501     -0.233457
Ti      13.14077      9.39145      6.32421        -1.203675     -0.182047     -0.352948
Ti       1.89922      9.35751     10.29682        -0.729513      0.074821      0.436750
Ti      13.10429      9.32815     10.33564         0.794026      0.655406      1.121917
Ti       5.60856      1.86044      1.99883         1.220605     -0.424433      2.429882
Ti       5.67650      1.93498     14.32727        -1.700036     -0.431155     -0.373347
Ti       5.52914     13.10864      2.19446         0.188508     -0.567096     -1.132812
Ti       5.59545     13.17237     14.51529         0.006988     -1.015487     -1.582264
Ti       5.65672      1.81898      6.22305        -0.488218      0.819391      1.385180
Ti       5.61858     13.04597      6.27706         0.294274      0.383790     -0.257939
Ti       5.62633      1.78314     10.39586        -0.226681      0.600022     -0.279344
Ti       5.56768     13.07192     10.40052         0.464065     -0.239543     -0.411509
Ti       5.65201      5.61287      2.10858        -0.984690     -0.126881      0.754884
Ti       5.65838      5.70461     14.54261        -0.459283     -0.970408     -1.033752
Ti       5.58674      5.62823      6.26263        -0.083937     -0.505373     -0.294196
Ti       5.63674      5.67573     10.22754        -1.413635     -1.659017      0.410198
Ti       5.54576      9.36688      2.24220        -0.084505      0.163626     -1.557871
Ti       5.68493      9.42385     14.37830        -0.538703      0.417782      1.450709
Ti       5.67505      9.33454      6.25243         0.089985      0.305087     -0.840399
Ti       5.67012      9.31509     10.27526        -0.873910      0.107899      0.713664
Ti       9.33818      1.89742      2.23057         0.242244     -0.347108     -1.176956
Ti       9.39779      1.89914     14.37459        -1.406068      0.497090      0.410488
Ti       9.31927     13.17670      2.22960         0.536144     -0.050724     -0.379203
Ti       9.33369     13.19530     14.43059         0.070817     -1.020626      1.915789
Ti       9.36033      1.91803      6.26380         0.140811     -0.672230     -1.032301
Ti       9.40883     13.13567      6.19393        -0.400125      0.838359     -0.193064
Ti       9.34813      1.87110     10.32288        -0.271868      0.201960     -0.744217
Ti       9.31676     13.11493     10.33331         0.087520      0.287523     -0.360662
Ti       9.36847      5.66160      2.21322         0.161927     -0.628990      0.202527
Ti       9.39166      5.62009     14.39565         0.140815      0.193133      0.224081
Ti       9.26915      5.70250      6.21520         0.856795     -1.622804     -0.521124
Ti       9.37750      5.61580     10.24662        -0.366971     -1.151027      1.365843
Ti       9.27628      9.41249      2.19154         0.919528      0.098769      0.717172
Ti       9.36899      9.43546     14.45639         0.703178     -0.778504      0.210932
Ti       9.28693      9.35195      6.28643         1.626552      1.111094     -2.050779
Ti       9.38277      9.31481     10.44525         0.098609      0.614697     -0.067854
O       2.00539      1.84320      0.34891        -0.179165      0.316475      0.585319
O       1.91257      1.91651     12.75431        -0.400394     -0.175608     -0.564524
O       1.70055     13.08065      0.30180         0.191068      0.331685     -0.203653
O       1.73947     13.13645     12.59120         0.476210     -0.044883      0.507431
O      13.03566      1.74340      0.35114         0.188275      0.437911      0.139315
O      13.03111      1.75706     12.63455         0.117368      0.663688     -0.194288
O      13.42618     13.09312      0.24303        -1.400876      0.593885      1.247666
O      12.90673     12.92879     12.65144         0.552780      0.979305      0.497606
O       1.79061      1.93747      4.42864         0.424939     -0.339671      0.784529
O       1.76904     13.12347      4.47278         0.311613      0.137062     -0.211370
O      13.10454      2.01233      4.43379         0.151135     -0.584755      0.212174
O      13.05714     13.07359      4.43376         0.204474      0.468403      0.965643
O       1.86276      1.92142      8.55048        -0.205001     -0.458676     -0.425365
O       1.90486     13.18059      8.53317        -0.080170     -0.144950     -0.951232
O      12.99598      1.88044      8.54368         0.271279      0.122318     -0.136420
O      13.14379     13.07085      8.49274        -0.145205      0.394795     -0.054396
O       1.75987      5.77293      0.30480         0.289665     -0.274187      0.898949
O       1.88084      5.61444     12.61836        -0.157257     -0.035083     -0.062644
O      13.11813      5.63518      0.41516         0.124774      0.139044      0.243095
O      13.10512      5.55378     12.68327         0.105342      0.585845      0.546958
O       2.06808      5.53503      4.44369        -0.637792      0.219714     -0.960816
O      13.15076      5.62136      4.41694        -0.144880      0.305773      0.477446
O       1.87036      5.60043      8.56171        -0.095704      0.253071     -0.596382
O      13.15380      5.50574      8.51447        -0.155391      1.029275      0.656884
O       1.99370      9.36245      0.27591        -0.610615     -0.181525      1.205857
O       1.86233      9.45194     12.54477         0.158344     -0.183674      1.032984
O      13.00260      9.33340      0.46291         0.210897      0.087236     -0.297092
O      13.12453      9.30424     12.62589        -0.130040      0.156400      0.669726
O       1.74720      9.36303      4.45425         0.241228     -0.021347     -0.356593
O      13.09714      9.33853      4.52701         0.333924      0.121354      0.013269
O       2.01510      9.35934      8.47774        -0.703284     -0.308993      0.051475
O      12.99747      9.27906      8.59145         0.209804      0.420726     -1.503339
O       5.55843      1.79702      0.27011         0.055007      0.102550     -1.034710
O       5.49816      1.83864     12.49497         0.383795      0.008703      1.135755
O       5.65127     13.10593      0.33424        -0.487547      0.396362      1.022108
O       5.52453     13.10600     12.63606         0.270229      0.019300      0.840618
O       5.64672      1.99595      4.47731        -0.171381     -0.494055     -0.475932
O       5.66785     13.00457      4.49631        -0.746346      0.442438     -0.318870
O       5.60054      1.83021      8.57147        -0.159751     -0.334758     -0.068193
O       5.65648     13.22486      8.56993        -0.147143     -0.391617      0.278860
O       5.81855      5.75980      0.33375        -0.752935     -0.443284     -0.640635
O       5.76492      5.63303     12.77247        -0.477497      0.275590     -0.790808
O       5.59481      5.60656      4.43057        -0.445822     -0.263187      0.088012
O       5.40296      5.73170      8.45976         0.899405     -0.376601      0.369043
O       5.47737      9.40161      0.37923         0.559541     -0.140204      1.205887
O       5.50348      9.40754     12.64595         0.462551     -0.231757     -1.027045
O       5.62835      9.29150      4.44354         0.060398      0.216066      0.518326
O       5.61742      9.30497      8.49643         0.110156      0.009355      0.089067
O       9.37724      2.06679      0.38598        -0.288223     -0.783764      0.737545
O       9.35802      1.92856     12.56973        -0.150587     -0.407160      0.825893
O       9.29439     13.23297      0.46542        -0.264848     -0.148493     -0.676212
O       9.29984     13.10859     12.70414         0.442421      0.115611     -1.600194
O       9.32068      1.85362      4.38532         0.023045      0.266933      1.837117
O       9.58648     13.25345      4.36113        -0.659640     -0.538661      1.071050
O       9.35808      1.88592      8.48625        -0.020135     -0.117699      0.773816
O       9.31281     13.13190      8.54114        -0.132062     -0.101363      0.025706
O       9.35415      5.59918      0.44036        -0.154921      0.072769     -0.723276
O       9.30720      5.62121     12.62621        -0.089295     -0.055977     -0.681290
O       9.30838      5.73405      4.39832         0.030626     -0.228060      0.735371
O       9.26492      5.69681      8.50795         0.387172     -0.124834     -0.859649
O       9.41221      9.47947      0.43127        -0.145548     -0.468930     -0.602536
O       9.38503      9.35593     12.67090        -0.205431      0.076269     -0.299760
O       9.20418      9.33224      4.48284         0.436746      0.050402      0.483405
O       9.26942      9.36609      8.66774         0.393005      0.005669     -0.828165
O       3.83580      1.97460      2.53776        -1.189293     -0.339287     -0.134928
O       3.76554      1.83959     14.71967         0.405287     -0.102410      0.233553
O       3.66397     12.98281      2.50347         0.222568      0.317961     -0.106839
O       3.70113     13.13907     14.70563         0.173567      0.407015      0.093104
O      14.97971      1.92143      2.41458         0.054796     -0.323789     -0.012184
O      14.99127      1.92151     14.76842         0.132700     -0.124074     -0.148087
O      15.00119     13.20503      2.50186         0.285457      0.173541     -0.062733
O      14.93098     13.16193     14.57324         0.781150     -0.473281      0.252962
O       3.64946      2.00317      6.51549         2.331381     -0.189302     -0.087244
O       3.78117     12.99316      6.58010        -1.072258      0.123656     -0.044444
O      14.91051      1.85987      6.59396         1.248246     -0.400602     -0.025669
O       0.03960     13.15180      6.65750        -1.135413     -0.169577     -0.469973
O       3.68877      1.87667     10.63085         0.669320     -0.305641     -0.117155
O       3.66248     13.15006     10.70610         0.606850     -0.155226     -0.434103
O      14.85830      1.92349     10.76165         1.766401     -0.168872     -0.474683
O      14.92620     13.13670     10.61147         0.483689      0.250028      0.051545
O       3.69754      5.71719      2.21880         1.692933     -0.369585      0.440345
O       3.80048      5.64735     14.91522        -0.946308      0.252925     -0.614026
O       0.02454      5.52716      2.45709        -0.999295      0.775188      0.434412
O      14.99806      5.61039     14.84017        -0.052117      0.305269     -0.771012
O       3.69496      5.52077      6.59458         0.683158     -0.039206     -0.319599
O      14.99717      5.75976      6.53374         0.110131      0.043514     -0.266324
O       3.73987      5.68439     10.71123         0.703662     -0.493811     -0.063524
O      14.96052      5.59121     10.71005         1.038820      0.009985     -0.245289
O       3.64309      9.45615      2.59420         0.412825     -0.619365     -0.551316
O       3.81457      9.37447     14.73785        -0.852458      0.086799     -0.487592
O      14.96067      9.38958      2.46110        -0.423348     -0.374997     -0.030164
O      14.96511      9.37072     14.71289         0.416047     -0.058272      0.130394
O       3.84438      9.39706      6.46099        -1.737285      0.250240      0.118552
O      14.97915      9.29406      6.61265         0.312811     -0.125105     -0.006565
O       3.74532      9.36287     10.57209         0.229454     -0.167490      0.195029
O      14.99306      9.27681     10.51835         0.193807     -0.093260      0.136466
O       7.48375      1.70478      2.52232        -1.293189      0.333357     -0.629295
O       7.42301      1.92961     14.65139         1.979680     -0.089200      0.229728
O       7.37374     13.18215      2.46317         0.858096     -0.007648      0.317365
O       7.50335     13.03009     14.82525        -0.413971      0.521109     -0.371849
O       7.45532      1.80965      6.64250         0.320510     -0.188311     -0.531930
O       7.53117     13.24090      6.45299        -0.575601      0.068473      0.300495
O       7.47861      1.84983     10.76492        -0.059339     -0.492922     -0.639597
O       7.47130     13.14435     10.80996        -0.699654     -0.061099     -0.551652
O       7.44425      5.61491      2.43349         0.966515      0.420701      0.169985
O       7.55274      5.59687     14.76683        -0.819422     -0.048226      0.384103
O       7.44348      5.62684      6.57235         0.000309      0.450103      0.112889
O       7.40241      5.72891     10.48890         2.316975     -0.271382      0.477228
O       7.44883      9.38959      2.55015        -0.304750     -0.328956     -0.891137
O       7.51351      9.55321     14.81084        -0.357149     -0.628889     -0.389984
O       7.52370      9.38701      6.69497        -1.417499     -0.175270     -0.034475
O       7.48254      9.32308     10.75717        -0.015894     -0.505677     -0.238027
O      11.22320      1.91319      2.47593         0.361239     -0.108310      0.092785
O      11.12353      1.75020     14.66432         2.532549      0.123586      0.322015
O      11.25383     13.00924      2.21612         0.617092      0.401532      0.460335
O      11.17087     13.25147     14.90327         0.774861     -0.705670     -0.490978
O      11.23640      2.02604      6.50186         0.253962     -0.308724     -0.092598
O      11.23075     13.12733      6.67518         1.065136     -0.327224     -0.488873
O      11.18371      1.87944     10.75081         0.268842      0.164408     -0.583103
O      11.19826     13.01602     10.54609        -0.504979      0.119203      0.162613
O      11.25339      5.58828      2.42678        -0.578608      0.301627      0.399557
O      11.24347      5.64250     14.79479        -0.285053      0.014266     -0.049605
O      11.17707      5.59422      6.49790         0.760185      0.207862      0.019444
O      11.21331      5.52886     10.67039         0.202449      0.287534     -0.418290
O      11.22225      9.51504      2.62506        -0.551492     -0.539169     -0.603227
O      11.23267      9.40034     14.83004        -0.304058     -0.559708     -0.284610
O      11.15689      9.44562      6.53407         0.989870     -0.092033      0.379457
O      11.24589      9.42406     10.67147        -1.025932     -0.254238      0.033168
O       1.84487      3.73370      2.39492         0.441605      0.607384     -0.013394
O       1.89227      3.83607     14.85856         0.159906     -0.864837     -0.285036
O       1.92750      0.04727      2.43061         0.064571     -1.300781      0.203060
O       1.84970     14.99748     14.82764        -0.102638      0.218198     -0.323349
O      13.01846      3.79241      2.51813         0.581288     -1.245751     -0.436006
O      13.06303      3.69099     14.73987        -0.067737      1.001258      0.187512
O      13.12700     14.97296      2.54688        -0.154097      0.951449     -0.378941
O      13.18605      0.00370     14.59970        -0.444753     -0.273407      0.691777
O       1.73172      3.74481      6.61033         0.021502     -0.093866     -0.327341
O       1.92031     14.92740      6.51481         0.019349      2.307625      0.261868
O      13.21697      3.81843      6.67299        -0.294094     -0.381048     -1.074632
O      13.12568     14.99171      6.48891        -0.340387      0.521534      0.046504
O       1.90105      3.72409     10.68080        -0.477961      0.771979      0.094890
O       1.79822      0.08251     10.63493        -0.196575     -2.084539      0.163323
O      13.05772      3.78309     10.67303         0.117902     -0.547602      0.030050
O      12.99261      0.03744     10.53131         0.130758     -1.289577      0.359943
O       1.80267      7.52813      2.41344        -0.063684     -0.366764      0.439837
O       1.86102      7.56926     14.65409         0.012639     -1.119380     -0.061620
O      13.06927      7.52737      2.58249         0.195933     -0.249299     -0.410700
O      12.98477      7.45075     14.85802         0.747183      1.682903     -0.340219
O       1.94942      7.51401      6.40128        -0.065734     -0.961620      0.550462
O      13.04146      7.53619      6.72734        -0.049554     -0.700577     -0.812833
O       1.87140      7.45308     10.70735        -0.185656      0.912950     -0.239336
O      13.03908      7.42875     10.66678        -0.058216      0.984371      0.065463
O       1.73468     11.25238      2.47906         0.128816      0.087424     -0.340629
O       1.86903     11.27310     14.81931        -0.246040     -0.333880     -0.735578
O      13.22310     11.32971      2.54149        -0.315419     -1.288841     -0.521748
O      13.04742     11.24541     14.77266         0.066198     -0.291946      0.063998
O       1.75753     11.15105      6.56486         0.480927      1.800356      0.147107
O      13.18993     11.28044      6.59010        -0.349323     -0.879027     -0.049807
O       1.78125     11.24269     10.54341         0.174226      0.196761     -0.061065
O      13.07286     11.19276     10.59802         0.394448      0.663904     -0.040404
O       5.67551      3.71760      2.26891        -0.111832      0.457212      0.243580
O       5.57792      3.72405     14.70329        -0.058973      0.950443      0.402494
O       5.41365     14.95214      2.48991         0.389262      0.477079     -0.254257
O       5.68785      0.01685     14.68569        -0.336671      0.131103      0.090084
O       5.72057      3.75833      6.65518        -0.875729     -0.557122     -0.536284
O       5.46314     15.00037      6.47359         0.066081     -0.202073      0.019583
O       5.65286      3.70838     10.65318        -0.333126      0.858506     -0.413017
O       5.61034     14.90215     10.69339        -0.204724      1.232455     -0.116412
O       5.61290      7.48133      2.50010        -0.523703      0.297749     -0.476638
O       5.67238      7.55822     14.74801         0.442513      0.436717     -0.032530
O       5.56900      7.49196      6.53533         0.300086     -0.078904     -0.114220
O       5.61596      7.46969     10.61805        -0.366854      1.009534      0.482224
O       5.58746     11.14477      2.66241        -0.007333      1.946565     -0.826795
O       5.56586     11.34167     14.80744         0.063195     -1.728159     -0.388527
O       5.62046     11.19096      6.74888         0.537588      0.686494     -0.822675
O       5.58702     11.16450     10.66362         0.190786      0.919637     -0.322238
O       9.24541      3.77742      2.66093         0.604279     -0.130259     -1.035786
O       9.39018      3.80803     14.83634        -0.095903     -1.412005     -0.669392
O       9.41336      0.00460      2.59377         0.078246      0.154281     -0.687277
O       9.27880     15.00215     14.87802        -0.394683      1.090270     -0.657389
O       9.26454      3.74836      6.57968        -0.118424      0.876652     -0.360408
O       9.48253      0.06226      6.55205        -0.221143     -0.778242     -0.013288
O       9.29160      3.71896     10.59140        -0.196132      1.152048      0.007278
O       9.34461      0.00736     10.56782         0.008524     -0.781085      0.447627
O       9.42369      7.53070      2.45411        -0.173398      0.167409     -0.187732
O       9.20373      7.49740     14.68669         0.626816      0.871747      0.404644
O       9.33991      7.50973      6.56285        -0.031358      0.182931      0.345099
O       9.48685      7.42662     10.66733        -0.687878      1.076118      0.041397
O       9.22964     11.29522      2.55783         0.492274     -0.306879     -0.299116
O       9.41596     11.26961     14.90855         0.045225      0.659326     -0.773230
O       9.31033     11.33103      6.46492        -0.063624     -1.178477      0.487722
O       9.11499     11.25520     10.69164         1.406105     -0.550367     -0.476505
