  # total energy = -7880.10238405 
CRSYTAL
PRIMVEC
    15.2000000000000000    0.0000000000000000    0.0000000000000000
     0.0000000000000000   15.2000000000000000    0.0000000000000000
     0.0000000000000000    0.0000000000000000    17.000000000000000
PRESSURE
7.33052 7.75321 7.06425 0.028246 -0.060194 -0.01161
PRIMCOORD
320 1
Pb       3.72776      3.79463      4.25431         0.149586      0.283249     -0.238684
Pb       3.81747      3.81792     16.98206         0.405185     -0.084591     -0.063988
Pb       3.73423      0.04947      4.22760         0.089142     -0.300381      0.463728
Pb       3.79180     15.18255     16.94977         0.135335     -0.227639      0.014241
Pb       0.01287      3.80351      4.21543        -0.162951     -0.002252      0.035301
Pb       0.04626      3.84206     16.95939        -0.711821     -0.155395      0.234546
Pb      15.17411      0.04598      4.31085        -0.195412     -0.077269     -0.384506
Pb       0.00905     15.16228     16.96478        -0.378242     -0.187129      0.249989
Pb       3.82423      3.81430      8.42089        -0.161709     -0.268507      0.122237
Pb       3.79880     15.14310      8.54875        -0.301738     -0.131766     -0.419053
Pb       0.03940      3.72025      8.52942        -0.104720      0.242642     -0.256400
Pb      15.10227     15.17709      8.46913         0.453945     -0.179644      0.238018
Pb       3.81068      3.70805     12.65393        -0.387086      0.274715      0.559789
Pb       3.79880      0.03084     12.76384        -0.211986     -0.581352     -0.147256
Pb      15.16178      3.78961     12.69897         0.270733      0.602240      0.243991
Pb       0.00952      0.00228     12.76253        -0.159307     -0.422906     -0.368094
Pb       3.75161      7.59744      4.26415         0.703189     -0.249992     -0.369737
Pb       3.75449      7.60433     16.96552         0.327882     -0.285584      0.258505
Pb      15.15359      7.64222      4.26877        -0.094881     -0.216203     -0.307624
Pb      15.13373      7.54175     16.94966         0.012486     -0.126411     -0.007358
Pb       3.79630      7.57778      8.43023         0.534665      0.176182     -0.044675
Pb      15.13840      7.56135      8.48186        -0.125581     -0.015440     -0.082575
Pb       3.73398      7.55617     12.71329         0.388929     -0.319078     -0.158528
Pb       0.00256      7.55669     12.76479        -0.361497     -0.351637     -0.615615
Pb       3.69769     11.38480      4.26035         0.760363      0.411109     -0.222995
Pb       3.87617     11.38295      0.03871        -0.829712      0.347347     -0.017530
Pb       0.00823     11.40095      4.20841        -0.726606     -0.111971     -0.027763
Pb       0.02386     11.34989     16.91520         0.060051      0.474750      0.432599
Pb       3.73582     11.37739      8.51513         0.258726      0.064770     -0.454447
Pb      15.17429     11.36302      8.53250         0.019925      0.320713     -0.438309
Pb       3.76642     11.32417     12.68424         0.161005      0.543491      0.377847
Pb      15.16209     11.25561     12.81786        -0.123540      0.649835     -0.806049
Pb       7.56668      3.80014      4.23886         0.046893      0.010899      0.102835
Pb       7.60343      3.78056      0.03199        -0.482465      0.228103     -0.539392
Pb       7.57204     15.14651      4.21487         0.390679      0.127651      0.345647
Pb       7.62691     15.15655     16.96757        -0.182885     -0.285378      0.127950
Pb       7.62011      3.70121      8.47491        -0.221172      0.443677     -0.336909
Pb       7.60059      0.01371      8.50110         0.065321      0.020254     -0.020901
Pb       7.62726      3.74833     12.73661        -0.141487      0.281335     -0.088092
Pb       7.57815     15.15545     12.75221         0.010452      0.179157     -0.094760
Pb       7.61254      7.53372      4.17612        -0.045266     -0.016589     -0.125454
Pb       7.62375      7.62904      0.01249        -0.440897     -0.264819      0.314289
Pb       7.58233      7.59907      8.42576        -0.487105     -0.334106     -0.315821
Pb       7.56666      7.62421     12.68436        -0.298812     -0.584212      0.187141
Pb       7.54711     11.36509      4.25570         0.174828      0.376542     -0.345996
Pb       7.55215     11.40537     16.96495         0.501232      0.028219      0.488626
Pb       7.59839     11.40797      8.54257        -0.037084     -0.009779     -0.688396
Pb       7.62096     11.38813     12.70014        -0.419715     -0.270266      0.402976
Pb      11.36179      3.86927      4.17700         0.443044     -0.385083      0.110065
Pb      11.35000      3.71920     16.96415         0.366928      0.534038     -0.269438
Pb      11.42161     15.17222      4.20836        -0.422011      0.059841     -0.412815
Pb      11.39184     15.19976     16.97241        -0.115076     -0.320754      0.217906
Pb      11.39824      3.78221      8.47510         0.179483      0.215199     -0.198280
Pb      11.37265     15.19425      8.48146        -0.055388      0.104404     -0.357988
Pb      11.34510      3.70483     12.72495         0.332503      0.796345      0.144206
Pb      11.38897      0.00398     12.68468         0.070239     -0.250341      0.161547
Pb      11.40633      7.53756      4.18764        -0.003769      0.015464      0.086766
Pb      11.38439      7.59606     16.96370         0.681156     -0.390355     -0.384400
Pb      11.36641      7.56651      8.55065        -0.102588     -0.399765     -0.366140
Pb      11.38829      7.62263     12.79649        -0.016041     -0.534303     -0.264308
Pb      11.37385     11.35501      4.21392         0.020620      0.132702      0.059690
Pb      11.41562     11.39053     16.88876        -0.222770      0.303679      0.249864
Pb      11.38854     11.36141      8.49462        -0.582419      0.697864     -0.700013
Pb      11.33747     11.29423     12.63928         0.113225      0.509993      0.629689
Ti       1.90147      1.92085      2.27269        -0.705372      0.094910     -0.101102
Ti       1.90215      1.91244     15.05912        -0.274274     -0.862932     -1.012848
Ti       1.80143     13.37430      2.28546        -0.139999     -0.509978      1.321935
Ti       1.84136     13.28362     14.95264         0.397771     -0.623415      1.687510
Ti      13.27656      1.88312      2.21948         0.313568      0.387413      1.028890
Ti      13.29171      1.84644     14.96538         0.161325      0.607909      0.983186
Ti      13.21987     13.27334      2.22038         0.184683     -0.196623     -0.479287
Ti      13.19915     13.35577     14.86872         0.509207     -0.917608      2.956901
Ti       1.85915      1.86732      6.51918         0.555722     -0.053399      1.317944
Ti       1.85430     13.27540      6.45182         0.280619      0.481957      0.331540
Ti      13.34661      1.88011      6.43264        -1.206053      0.776707      0.083892
Ti      13.29229     13.27885      6.40902        -0.997356      0.119191      1.961937
Ti       1.84247      1.85766     10.79518         0.164102      0.308902     -0.299601
Ti       1.86542     13.30702     10.68414        -0.733413      0.073800      0.887304
Ti      13.31883      1.91377     10.84275        -0.267492      0.258525      1.568450
Ti      13.21044     13.30169     10.64380         0.896763      0.367369      2.683692
Ti       1.91572      5.76061      2.17109         0.043004     -1.001177      2.162822
Ti       1.93007      5.60398     14.88312        -0.739022      1.199636      0.903199
Ti      13.33557      5.68097      2.20242         0.399323     -0.797769     -0.355050
Ti      13.30173      5.56393     14.95041        -0.439600      1.304604      1.325618
Ti       1.91720      5.74860      6.48249        -0.372788     -1.416548      1.308753
Ti      13.35109      5.68268      6.47811        -1.180834     -0.038789      1.395821
Ti       1.87103      5.67984     10.64819        -0.799083     -0.387186      1.733174
Ti      13.20916      5.77242     10.67258         1.057240     -0.836364      2.207371
Ti       1.98461      9.53745      2.26476        -0.889287     -0.397850     -0.937943
Ti       1.89651      9.39453     14.96755        -0.338604      1.354974      1.442031
Ti      13.28198      9.48392      2.20965         0.489291     -0.021610      0.747854
Ti      13.32483      9.54089     14.97740        -0.956051     -1.310369      1.291022
Ti       1.85200      9.48816      6.44637         0.272221      0.142826      2.201306
Ti      13.21863      9.49581      6.54155         0.292161     -0.102579     -0.688357
Ti       1.88673      9.50558     10.71160        -0.515229     -0.196559      0.292517
Ti      13.19640      9.52258     10.69636         1.044682     -0.923376      1.147104
Ti       5.69850      1.92437      2.29923        -0.002627      0.279587      0.906155
Ti       5.74141      1.84930     14.90841        -0.574646      1.076342      0.382275
Ti       5.63599     13.36692      2.32894         0.584796     -1.458483     -1.068682
Ti       5.72510     13.21053     14.97859        -1.048136      0.571370     -0.668088
Ti       5.66505      1.80478      6.49438         0.581388      0.337217      0.875272
Ti       5.69437     13.29250      6.51266        -0.863868     -0.472060      1.207939
Ti       5.63045      1.86959     10.73399         0.902645     -0.708931      0.914052
Ti       5.65258     13.28891     10.77215        -0.279148     -0.218817      0.804213
Ti       5.70431      5.71042      2.18205        -0.639298     -0.212064      1.154412
Ti       5.70106      5.71670     14.93351        -0.173917     -0.825817      0.501466
Ti       5.64955      5.63405      6.38052         0.867101      0.657596      0.379508
Ti       5.62255      5.63643     10.70941         0.248084      0.916071      0.153287
Ti       5.83718      9.51297      2.18951        -2.268304     -0.265434      1.410173
Ti       5.64875      9.46032     15.06242         0.570877     -0.264364     -0.373700
Ti       5.66070      9.52431      6.42494         0.099645     -0.586105      0.435208
Ti       5.65579      9.49524     10.75859        -0.265999     -0.507206      0.569456
Ti       9.44806      1.87705      2.20971         0.818173     -0.711575      1.007744
Ti       9.45790      1.90057     15.00894         0.811707     -0.318876      0.408104
Ti       9.46017     13.29193      2.20904        -0.309540     -0.088203      0.597189
Ti       9.48643     13.24096     14.95262         0.016718      0.359601      1.281482
Ti       9.53425      1.95049      6.43087        -0.140835     -0.296033      1.598800
Ti       9.40738     13.38715      6.41011         1.013303     -1.264971      1.586535
Ti       9.47175      1.84227     10.74186         0.097517      0.807883     -0.205155
Ti       9.42964     13.27669     10.77135         0.190230     -0.174221      0.723137
Ti       9.51555      5.64623      2.16013         0.001793      0.683331      1.812566
Ti       9.37000      5.75943     14.96732         2.655215     -1.001062     -0.112373
Ti       9.52487      5.71374      6.47418        -0.080420     -0.084021      1.326742
Ti       9.43005      5.65393     10.70927         0.581556      0.527624     -0.121538
Ti       9.53956      9.51928      2.15205        -0.134909     -0.012236      2.134738
Ti       9.44867      9.42762     14.97294         0.575474      0.607954      0.357854
Ti       9.48206      9.47155      6.39749        -0.535496      1.052906      1.285740
Ti       9.41419      9.42583     10.70761         0.047001     -0.260854      2.098520
O       1.94172      1.82140      0.51089        -0.156309      0.004673     -0.682444
O       1.88792      1.90203     13.26668         0.066341     -0.488669      0.376909
O       1.82344     13.39235      0.55612         0.318257     -0.066846     -0.757523
O       1.86632     13.30837     13.23895        -0.074918     -0.115004     -1.354066
O      13.34895      1.88652      0.48798        -0.066555      0.056724     -0.621822
O      13.30038      1.93942     13.21214        -0.212612     -0.187093     -0.525249
O      13.25280     13.19418      0.45202        -0.236972      0.193795     -0.048138
O      13.20927     13.35373     13.19835         0.146782     -0.146097     -2.285888
O       1.83192      1.82439      4.77972         0.231497      0.321952     -0.357663
O       1.71211     13.25962      4.66639         0.524256      0.052329      0.515486
O      13.42858      1.97767      4.67084        -0.749191     -0.456284      0.268695
O      13.13151     13.26872      4.68369         0.298320     -0.003536     -0.894572
O       1.70959      1.83027      9.05297         0.353515      0.314328     -1.097578
O       1.91774     13.27429      8.94047        -0.279751     -0.171451     -0.653998
O      13.26519      1.91571      9.15479         0.345878      0.004123     -2.514159
O      13.18286     13.49922      8.94713         0.140396     -0.649141     -1.180778
O       1.98270      5.83268      0.45529        -0.292708     -0.504753     -1.108480
O       1.75520      5.74286     13.17578         0.705694     -0.202174     -0.827916
O      13.51711      5.60516      0.43078        -0.459083      0.229346      0.067148
O      13.17402      5.53067     13.23355         0.442561      0.642101     -1.070643
O       1.95711      5.67424      4.76941         0.085356      0.004954     -1.354860
O      13.17521      5.73152      4.76156         0.152682     -0.128272     -1.332555
O       1.93219      5.64340      8.90013        -0.229410      0.240757     -0.348350
O      13.32326      5.78061      8.95475         0.175292     -0.065304     -1.703349
O       1.86184      9.64005      0.45942         0.158114     -0.911000      1.215897
O       1.68240      9.66699     13.24449         0.944541     -0.682021     -0.937366
O      13.35792      9.32558      0.45873        -0.217584      0.851877     -0.284966
O      13.20497      9.44224     13.25843         0.357067      0.209187     -1.561102
O       1.71123      9.35358      4.74966         0.719214      0.538513     -1.525205
O      13.19186      9.54945      4.76620         0.057990     -0.330669      0.015769
O       1.91304      9.63156      8.94173        -0.197708     -0.535455      0.156158
O      13.23062      9.47775      8.96249         0.060180      0.019639     -1.250408
O       5.73606      2.03327      0.58132         0.042060     -0.099396     -1.408414
O       5.68680      1.92846     13.13185         0.004802     -0.333399      0.416286
O       5.65322     13.31648      0.52537         0.010053     -0.183766      0.024576
O       5.61228     13.20175     13.17055         0.339597      0.091434      1.402124
O       5.72504      1.76230      4.74855        -0.343478      0.334396     -0.517322
O       5.63897     13.24647      4.80464         0.131202      0.237888     -2.105609
O       5.79297      1.71642      9.01342        -0.370801      0.552366     -0.616497
O       5.73552     13.30258      9.03227        -0.058942     -0.069636     -0.822013
O       5.74869      5.60446      0.41320        -0.278894     -0.031808      0.019199
O       5.67786      5.70432     13.15699        -0.047036     -0.143147      0.573567
O       5.55024      5.55866      4.57406         0.597254      0.629541      1.635828
O       5.52836      5.72415      8.90692         0.521458     -0.114899      1.440072
O       5.72146      9.40576      0.45947        -0.174135      0.325442     -1.058123
O       5.65830      9.53553     13.29591        -0.061523     -0.125605      0.138021
O       5.78278      9.39969      4.66654        -0.168102      0.508254     -0.221925
O       5.60805      9.54147      9.03705        -0.175892     -0.281096     -1.101176
O       9.45840      1.78905      0.45228        -0.303269      0.583721     -0.662088
O       9.59439      1.80825     13.25181        -0.410208      0.188864     -0.371451
O       9.44147     13.18582      0.46711        -0.104594      0.333054     -1.052341
O       9.47014     13.38163     13.23874        -0.183562     -0.203037     -1.809440
O       9.54871      1.81176      4.73729         0.090208      0.219315     -1.527492
O       9.39667     13.33352      4.68137         0.479907     -0.113256     -0.629634
O       9.43809      1.82482      8.96428         0.152417      0.718899      0.047597
O       9.23998     13.28023      9.05693         0.626211     -0.122116     -0.671677
O       9.45446      5.60643      0.45912         0.112201     -0.019278     -1.274098
O       9.41319      5.88090     13.21518         0.204317     -0.334702     -0.526909
O       9.56304      5.84945      4.75193        -0.007566     -0.620318     -1.837973
O       9.44340      5.70674      8.92213        -0.202093     -0.058113      0.202137
O       9.63811      9.43597      0.44950        -0.396444      0.230692     -1.281934
O       9.45198      9.43363     13.18720        -0.022840     -0.296396      0.322873
O       9.45956      9.66240      4.65593        -0.114331     -0.783910      0.175158
O       9.40630      9.41030      9.01913         0.086874      0.260968     -2.287306
O       3.77237      1.85376      2.63665         0.725449     -0.070150      0.207562
O       3.81021      1.98599     15.34096         0.407364     -0.518578      0.145759
O       3.74927     13.34089      2.79204        -0.247750     -0.260718     -0.551550
O       3.77339     13.19835     15.36454         0.801115      0.500208      0.051443
O       0.01854      1.92386      2.75516        -0.408846     -0.103329     -0.765884
O      15.16632      1.71174     15.40751         0.429297      0.708030     -0.374787
O      15.09700     13.22312      2.63562         0.816841      0.201743     -0.096643
O      15.09561     13.28829     15.31431         0.687706      0.022995     -0.099833
O       3.80195      1.80590      6.98775        -0.540480     -0.033931     -0.479751
O       3.75128     13.41491      6.84738        -0.301794     -0.219659      0.095005
O      15.15335      1.87381      6.91606         0.744077      0.641602      0.118542
O      15.14158     13.25631      6.93080         0.387372     -0.255619     -0.216875
O       3.72989      1.80322     11.16700         1.002415      0.094547     -0.288015
O       3.75922     13.40436     11.04807         0.179982     -0.496156      0.332376
O       0.02249      1.84941     11.23509        -1.014153      0.112424      0.067428
O      15.12213     13.26745     11.03531         0.153470     -0.107117      0.022987
O       3.79509      5.53708      2.66060        -0.403797      0.823470     -0.673771
O       3.79267      5.68455     15.36841         0.599316     -0.293730     -0.230137
O       0.02582      5.54699      2.65397         0.294004      0.848551     -0.284004
O       0.03740      5.63629     15.27980         0.118664      0.114091      0.355331
O       3.80008      5.71258      6.89201         0.197615     -0.180315     -0.302979
O       0.02240      5.58596      6.81449        -0.230628      0.802528      0.286661
O       3.72607      5.57792     11.21139         0.701193      0.490483     -0.570053
O      15.17962      5.75531     11.13599         0.570586     -0.016958     -0.454248
O       3.85205      9.56713      2.63167        -1.292199     -0.457508     -0.000091
O       3.75839      9.47387     15.50054         0.397453      0.270818     -0.711405
O      15.15632      9.43841      2.75689         0.045732      0.391414     -0.730689
O      15.19564      9.58230     15.31309         0.178370     -0.211680      0.037595
O       3.79577      9.49783      6.83747        -1.471977     -0.419051     -0.187472
O      15.09611      9.52292      6.87458         1.195546     -0.304128      0.291215
O       3.79193      9.44239     11.25722        -1.384718      0.532310     -0.418936
O      15.13270      9.40082     11.07931         0.900100      0.807170     -0.015413
O       7.63318      1.86742      2.80852        -0.646405      0.258603     -0.850160
O       7.60212      1.88344     15.30141        -0.234366     -0.026054      0.192399
O       7.56618     13.34797      2.71945        -0.701846     -0.251981     -0.368865
O       7.61644     13.19322     15.40697        -1.443233      0.406906     -0.251684
O       7.60405      1.96417      6.91281         0.057944     -0.299180     -0.390638
O       7.55057     13.26177      6.85875         0.171854      0.065750      0.051579
O       7.59519      1.96538     11.14879         0.159212     -0.281723     -0.028617
O       7.53925     13.25943     11.30495         0.820898      0.017743     -0.542152
O       7.59165      5.62343      2.56231         0.213502      0.417540      0.249116
O       7.62850      5.76222     15.35549        -2.105704     -0.255230      0.215963
O       7.56558      5.69152      6.84688        -0.486611     -0.100639     -0.308646
O       7.56654      5.58380     11.19775        -0.922924      0.419458     -0.789564
O       7.60664      9.44533      2.54333         1.095995     -0.213377      0.190492
O       7.59409      9.44219     15.47394        -0.173162     -0.138848     -0.415182
O       7.48717      9.48604      6.96102         1.435468      0.349170     -0.470960
O       7.49713      9.37798     11.09411         1.016440      0.594422      0.063520
O      11.36792      1.85533      2.52600         0.275919      0.199440      0.271205
O      11.39494      1.88056     15.48113        -0.498050      0.035776     -0.478845
O      11.31155     13.29966      2.50772         0.874131     -0.054454      0.624036
O      11.31395     13.24918     15.29978         0.437655      0.259319      0.417014
O      11.44556      1.97182      6.93681        -0.288342     -0.745011     -0.342965
O      11.37765     13.37903      6.97984        -0.318201     -0.380845     -0.599944
O      11.40365      1.96634     11.13107        -0.442694     -0.466138      0.047061
O      11.34656     13.32417     11.17732        -0.577657     -0.222820     -0.522771
O      11.43465      5.60729      2.55260        -0.799206      0.536339     -0.045388
O      11.42508      5.69936     15.28249        -0.365798      0.028271      0.642232
O      11.38967      5.77389      6.96149        -0.174188     -0.691833     -0.049526
O      11.38749      5.73591     10.95677        -0.858469      0.019606      0.410205
O      11.36906      9.52678      2.61864         0.452743     -0.392908     -0.150506
O      11.38442      9.31399     15.32122        -0.215492      0.376755      0.029720
O      11.34976      9.57346      6.89905        -1.143388     -0.109304     -0.012111
O      11.34204      9.45974     11.11129        -0.184490     -0.312248     -0.074624
O       1.96220      3.78072      2.52715        -0.362397      0.162927      0.271928
O       1.78631      3.78498     15.29377         0.665194     -0.678784      0.451499
O       1.79951      0.02702      2.82559         0.288881     -0.512844     -0.893201
O       1.95026     15.17135     15.46709        -0.092812     -0.034286     -0.494988
O      13.28288      3.82568      2.64607        -0.038388     -1.060096      0.044529
O      13.29650      3.71230     15.46147         0.279056     -0.017106     -0.217450
O      13.28263     15.16340      2.53739         0.024518      0.504625      0.400031
O      13.20029     15.19364     15.35637        -0.109275     -0.211055     -0.071253
O       2.00608      3.79102      6.91406        -0.595744     -0.779931     -0.215940
O       1.78429     15.14661      6.88520         0.062932      0.810868     -0.136843
O      13.25973      3.81849      6.83692         0.123672     -0.556295      0.383087
O      13.35892     15.19242      6.78993        -0.475021      0.470565     -0.069624
O       1.88018      3.76628     11.13873        -0.193743      0.333004     -0.301138
O       1.82949     15.16916     11.06882         0.028750     -0.115269      0.674992
O      13.39193      3.88941     11.18610        -0.586751     -1.126204     -0.580065
O      13.24908     15.17956     11.18098         0.166084      0.310709     -0.112566
O       1.84010      7.57818      2.73509         0.516553      0.458912     -0.614945
O       2.00030      7.55513     15.28596        -0.721204      0.435925     -0.112514
O      13.30048      7.51024      2.57275        -0.092970      1.360329      0.322384
O      13.47355      7.56338     15.42297        -0.846072     -0.016340     -0.760146
O       1.88187      7.57046      6.86493        -0.298636      1.124424      0.170377
O      13.07956      7.58092      6.87249         1.471359      0.655116      0.090326
O       1.93336      7.56051     11.10081        -0.003411      0.810210     -0.262391
O      13.30058      7.60829     11.13200        -0.359052      0.365301      0.167912
O       1.88000     11.38845      2.63817        -0.136855      0.168394      0.200426
O       1.85508     11.39544     15.49213         0.289799      0.244133     -0.750600
O      13.19908     11.36840      2.64671         0.297476     -0.399381     -0.336074
O      13.07083     11.40732     15.25838         1.023845     -0.410044     -0.044661
O       1.92728     11.39264      6.77901        -0.293158     -0.423596      0.159369
O      13.24216     11.43777      6.90228        -0.149402     -0.484288      0.303733
O       1.88888     11.41225     11.08259        -0.007269     -0.771877      0.198552
O      13.16681     11.38433     11.05690         0.297352      0.068699     -0.063205
O       5.74694      3.81904      2.72527        -0.217829     -1.073902     -0.430251
O       5.78398      3.79185     15.32926        -0.088314      0.045709     -0.006916
O       5.68924     15.19966      2.48603        -0.072649      0.627572      0.756195
O       5.79180     15.18365     15.33254        -0.612484     -0.367262     -0.222527
O       5.67040      3.75165      6.89996        -0.196798      0.156234     -0.321235
O       5.72449     15.16253      6.98242         0.006889      0.368510     -0.350979
O       5.65903      3.71638     11.06320        -0.263574      0.999464     -0.112203
O       5.74753     15.15368     11.20323        -0.143039      0.734431     -0.037684
O       5.53895      7.56794      2.59836         0.754936     -0.063617     -0.181171
O       5.76085      7.56963     15.45382        -0.658301      0.023142     -0.438609
O       5.63610      7.59490      6.77408         0.009327     -0.637359      0.149882
O       5.54089      7.57944     11.17793         0.468102     -1.053361     -0.481058
O       5.70684     11.37854      2.58054         0.007218      0.330262      0.225864
O       5.69894     11.33922     15.46738         0.001203      0.461950     -0.290514
O       5.47641     11.38890      6.85506         0.917048      0.364796      0.034226
O       5.69012     11.36817     11.12582        -0.274899      0.346256      0.137905
O       9.52115      3.77224      2.61960        -0.373017     -0.049031     -0.068458
O       9.44016      3.82883     15.26662         0.247805     -0.791925      0.312151
O       9.50155     15.17197      2.62392        -0.217942      0.731904     -0.060400
O       9.42335     15.13705     15.44970         0.232575      0.580453     -0.348899
O       9.54083      3.85025      6.71299        -0.164369     -0.946480      0.587462
O       9.48490      0.01579      6.79842        -0.127772      0.423085      0.332671
O       9.58102      3.82829     11.13053        -0.577446     -0.857175      0.072442
O       9.44714     15.19315     10.97409         0.014249     -0.100131      0.769347
O       9.48378      7.57079      2.60837         0.125471      0.107574     -0.283104
O       9.47914      7.54719     15.57719         0.001760      0.897031     -0.749870
O       9.45299      7.58993      6.73348        -0.128613      1.806675      0.503909
O       9.42702      7.55760     11.11014         0.067419      0.063832     -0.055690
O       9.39982     11.42813      2.58896         0.083349     -1.108826      0.003231
O       9.36012     11.33600     15.30147         0.899300     -0.564916     -0.021162
O       9.42290     11.47663      6.92182         0.267094     -1.170196     -0.120864
O       9.50956     11.32362     11.13455        -0.654247      0.603540     -0.198548
