  # total energy = -7874.20015565 
CRSYTAL
PRIMVEC
    15.2000000000000000    0.0000000000000000    0.0000000000000000
     0.0000000000000000   15.2000000000000000    0.0000000000000000
     0.0000000000000000    0.0000000000000000    17.000000000000000
PRESSURE
7.91927 7.86516 2.7217 0.176604 -0.039695 -0.013136
PRIMCOORD
320 1
Pb       3.61035      3.86156      4.34638         0.405927     -0.014498     -0.638827
Pb       4.01354      3.92400     16.98256        -0.791660     -0.109160      0.857952
Pb       3.62284      0.24442      4.35474        -0.223135     -0.671244     -0.533637
Pb       3.88394     15.15488     16.92435        -0.474416     -0.151507      0.025403
Pb       0.09868      3.90001      4.21220        -0.625523     -0.350213     -0.151831
Pb       0.24327      3.95923     16.92681        -1.469423     -1.222368      0.193189
Pb      15.13516      0.27136      4.56743         0.261703     -0.556766     -1.294858
Pb       0.08061     15.05926     16.96287        -0.311045      0.263762     -0.451252
Pb       3.98036      3.89669      8.34919        -0.701374     -0.277687      0.190595
Pb       3.85917     14.98363      8.75994        -0.248786      0.112418     -0.408133
Pb       0.18205      3.58244      8.71101        -0.629140      1.394235     -0.445994
Pb      14.84742     15.14100      8.48490         0.876601     -0.596022      0.287367
Pb       3.85523      3.59063     12.52056        -0.121737      1.067605      0.611979
Pb       3.81574      0.07068     12.88785         0.029036     -0.324489     -0.342954
Pb      15.13389      3.90897     12.68436        -0.045216     -1.389343      0.146915
Pb       0.09680     15.19236     12.92228        -0.608422      0.124768     -0.645748
Pb       3.70058      7.65779      4.37228        -0.075647     -0.048966     -0.658854
Pb       3.71248      7.64377     16.95290         1.333188     -0.010014      0.633714
Pb      15.04547      7.84124      4.39706         0.666179     -0.439156     -0.851313
Pb      15.06530      7.43063     16.84893         0.234457      0.888750      0.177509
Pb       3.87640      7.58193      8.30655        -0.553050      0.173662      0.289702
Pb      15.02583      7.50749      8.48616         0.251224     -0.100083      0.856180
Pb       3.64048      7.43268     12.66611         0.952687      0.331470     -0.661065
Pb       0.02558      7.41500     12.81952        -0.646251      0.240979     -0.673067
Pb       3.49947     11.47956      4.38784         0.312056     -0.607198     -0.500294
Pb       4.09692     11.44948      0.28115        -0.751180     -0.289114     -0.628209
Pb      15.15206     11.49058      4.21820        -0.107043     -0.242239     -0.131875
Pb       0.14407     11.33866     16.84418        -0.130045      0.480927     -0.071203
Pb       3.62710     11.38585      8.57210         0.901862      0.006672      0.326846
Pb      15.11031     11.36668      8.63475        -0.350694      0.085936     -0.099283
Pb       3.70046     11.26302     12.68605         0.333122      0.125779     -0.201429
Pb      15.10528     10.96177     13.04948         0.631008      1.321922     -1.482497
Pb       7.55483      3.84358      4.29534        -0.100559     -0.100752     -0.255724
Pb       7.60544      3.79579      0.15322        -0.169831      0.021712     -0.379312
Pb       7.54996     15.07895      4.24423         0.527434      0.185912      0.035847
Pb       7.69877     15.07137     16.96597        -0.161172      0.040659     -0.286367
Pb       7.71422      3.56351      8.41419        -0.503231      0.752085     -0.099038
Pb       7.66718      0.03613      8.55678        -0.200170     -0.234444     -0.880408
Pb       7.73359      3.74377     12.79486        -1.079441      0.501087     -0.449402
Pb       7.58549     15.08496     12.88438        -0.181730      0.028455     -0.457495
Pb       7.75880      7.45834      4.02597        -0.692466      0.514082      1.316550
Pb       7.70647      7.72846      0.17681        -1.377034     -0.225966     -1.167089
Pb       7.52822      7.63746      8.24115         0.012089      0.239519      0.639353
Pb       7.44277      7.63919     12.63201         0.313637     -0.162830      0.096360
Pb       7.44583     11.36491      4.31271         0.904214     -0.047614      0.133982
Pb       7.51344     11.49639      0.01482         0.509431     -0.639170     -0.559191
Pb       7.61573     11.52690      8.67973        -0.503879     -0.273568     -1.142399
Pb       7.62420     11.34407     12.73233        -0.423727      0.167832     -0.429060
Pb      11.35800      4.05863      4.05580         0.184254     -1.394904      0.613111
Pb      11.29192      3.59571     16.95517         0.719370      0.031652      0.268625
Pb      11.52160     15.14050      4.11183        -0.533827      0.133368      0.180167
Pb      11.43646     15.19209     16.97947         0.002318      0.000610      0.010826
Pb      11.47886      3.79568      8.46352        -0.169412     -0.076596      0.442042
Pb      11.33597      0.03923      8.45735        -0.338682      0.005381      0.060937
Pb      11.25209      3.59579     12.79961         1.310992      0.447227     -0.573208
Pb      11.38663      0.00240     12.63606         0.389864      0.126324      0.546877
Pb      11.51541      7.48360      4.06551        -0.834501      1.307996      0.788050
Pb      11.42440      7.57696     16.92989        -0.113227      0.334513     -0.332587
Pb      11.28220      7.50289      8.73447         0.588857     -0.009286     -0.593101
Pb      11.38607      7.64494     12.98890        -0.158493     -0.400165     -0.882511
Pb      11.37256     11.28810      4.17340        -0.532729      0.032548     -0.195676
Pb      11.50281     11.45426     16.67241        -0.470569     -0.293192      1.002925
Pb      11.31444     11.41122      8.53547        -0.087815      0.119670     -0.544781
Pb      11.23311     11.14303     12.43993         0.441987      0.902568      1.302825
Ti       1.86278      1.87658      1.99780         0.187622     -0.060329      1.308640
Ti       1.91330      1.97265     14.91805        -0.620835     -1.400053     -0.453551
Ti       1.86086     13.30057      2.20664         0.117293      0.403777     -1.138112
Ti       1.88003     13.29556     14.87320         0.626593     -0.823499      0.140968
Ti      13.34353      1.90610      2.11199        -0.696079     -0.159259     -0.646571
Ti      13.35201      1.85067     14.95122         0.105307      0.040363     -0.079044
Ti      13.35933     13.26089      2.15613        -0.781900      1.233635      1.028590
Ti      13.35354     13.30246     14.83734         0.400041     -0.705020      0.500077
Ti       1.85811      1.86201      6.64682         0.786441      0.978192     -0.820023
Ti       1.80111     13.31518      6.68022        -0.159067     -0.203618     -0.445519
Ti      13.19244      1.98635      6.41354        -0.258580     -0.062432      1.172081
Ti      13.14452     13.25042      6.56466         0.384704     -0.214994      0.009771
Ti       1.89479      1.78710     10.66583        -0.065171      0.661875      0.970322
Ti       1.78484     13.23118     10.88718        -0.196687     -0.527582     -0.648607
Ti      13.31565      1.82006     10.60121        -0.796396      0.946732      0.927626
Ti      13.25608     13.15808     10.83698         0.554345      0.811802     -0.554207
Ti       1.77551      5.72766      2.26605         1.827751      1.368630     -0.260958
Ti       1.96005      5.64589     14.96854        -0.522459      0.641877     -0.387559
Ti      13.35636      5.75126      2.10840        -0.982711     -0.187447      0.391911
Ti      13.23199      5.60169     14.90438        -0.093908      0.436259      0.155601
Ti       1.69388      5.73618      6.50260         0.523609     -0.473459      0.986863
Ti      13.18218      5.72270      6.47988         0.645287      0.589606     -0.137459
Ti       1.88072      5.64138     10.65134         0.065481      0.034015     -0.186729
Ti      13.14942      5.65636     10.84204         0.614338     -0.480752     -1.106631
Ti       1.76918      9.46889      2.04137         0.674787     -0.325732      2.659306
Ti       1.98399      9.37887     14.96837         0.040918      1.954861     -0.022392
Ti      13.22509      9.54040      1.98718         0.540644     -0.322638     -0.131091
Ti      13.33534      9.49486     14.92613        -1.490816     -0.865965     -0.331613
Ti       1.75229      9.52036      6.58843         0.745438     -0.170790     -0.748955
Ti      13.18775      9.49899      6.47159         0.309634     -0.131314      2.176633
Ti       1.81835      9.39436     10.62501        -0.247143      0.355484      0.627992
Ti      13.22155      9.38487     10.71899         1.039701     -0.421687      0.416576
Ti       5.61851      1.84083      2.24204         0.328838      1.184058     -0.015734
Ti       5.70267      1.87744     15.08588        -0.352110      0.007668     -1.131775
Ti       5.66938     13.30187      2.37036        -0.149116     -0.037590     -0.608576
Ti       5.66107     13.25701     14.94859         0.073729     -0.338562     -0.778204
Ti       5.62941      1.83312      6.42296         0.681553      0.724618      0.596110
Ti       5.57280     13.31855      6.46902         1.578129     -0.838241     -0.289694
Ti       5.71308      1.87551     10.63188         0.563085      0.280489     -0.058641
Ti       5.59980     13.29046     10.82155         0.291427     -1.281309     -0.271300
Ti       5.67100      5.63355      2.32966        -1.004689      1.227617      1.174894
Ti       5.70258      5.71586     14.87392         0.830910      0.946345      1.569178
Ti       5.69706      5.72460      6.44046         1.000047      0.093271     -0.737509
Ti       5.81164      5.66635     10.56516        -1.499537      0.062932      1.473751
Ti       5.55556      9.47998      2.41505         0.023867     -0.601778     -0.678117
Ti       5.64821      9.48074     14.82892         0.786359     -0.799219      0.692006
Ti       5.63141      9.60510      6.39508         0.811414     -0.329678      1.293699
Ti       5.63877      9.43485     10.52310        -0.256583      0.917373      1.478316
Ti       9.46816      1.90465      2.30889         0.496413     -0.585372     -0.656928
Ti       9.46634      1.88307     14.95675         0.296522     -1.139577      0.194224
Ti       9.54102     13.24874      2.18603         0.502688      0.007736      0.707271
Ti       9.58447     13.24041     14.87215        -1.019164      0.070188      0.209170
Ti       9.50784      1.89699      6.32131        -0.439148     -0.473054      0.217839
Ti       9.43767     13.28796      6.48493        -0.283682     -0.698308      0.021056
Ti       9.47158      1.90876     10.74902         0.252307     -0.487467     -0.374604
Ti       9.48393     13.40415     10.66043        -0.031969     -1.243124      0.977531
Ti       9.52555      5.68663      2.03416        -0.584586      0.078034      1.445945
Ti       9.48725      5.60975     14.98358        -0.758627      1.322722      0.163827
Ti       9.47607      5.62605      6.52608        -0.648571      0.878466     -1.395986
Ti       9.42291      5.67352     10.60097         0.388373      0.638354      1.009750
Ti       9.38959      9.49095      2.12066         1.063679      1.234973      0.322372
Ti       9.40195      9.48962     14.92889         0.174159      0.491013      0.134995
Ti       9.52110      9.36433      6.46668        -1.441323      2.018879     -1.384438
Ti       9.35028      9.50108     10.57757         0.251440     -1.082394      1.476611
O       1.80059      2.03453      0.22105         0.147724     -0.315779      0.613722
O       2.02234      1.89056     13.07249        -0.485338     -0.059565      0.391714
O       1.78063     13.25193      0.37872         0.272571      0.166515      1.107770
O       1.92143     13.30461     13.07267        -0.370900      0.308838      0.046068
O      13.27463      1.74800      0.27025         0.060748      0.340528      0.927711
O      13.21940      1.82389     13.18821         0.085299      0.105538     -0.191988
O      13.38692     13.46654      0.43627        -0.198554     -0.425651     -1.245884
O      13.38993     13.14657     13.12534        -0.248908      0.345048     -1.057226
O       2.00825      1.95313      4.71453        -0.665469      0.045975      1.068079
O       1.95364     13.37001      4.86977        -0.398806     -0.661113     -0.463738
O      13.16286      1.91667      4.65850         0.571672     -0.048612     -0.440821
O      13.26847     13.30942      4.80870        -0.033608     -0.050185     -0.934914
O       1.83793      1.84250      8.89512         0.045997     -0.201671     -1.303320
O       1.83643     13.28720      8.98809         0.194821      0.097181      0.329009
O      13.22565      1.92442      8.74741         0.434008     -0.159109      0.987724
O      13.28719     13.13992      8.95326         0.027779      0.913445      0.932197
O       1.76044      5.65735      0.39531         0.436760      0.338170      0.956195
O       1.82973      5.67805     13.19774         0.316704      0.151567     -0.536735
O      13.20057      5.92641      0.35845         0.464482     -0.635038     -0.745055
O      13.24336      5.78742     13.11690         0.007993     -0.443120     -0.288902
O       1.76077      5.73170      4.70963        -0.103846     -0.636942     -0.328458
O      13.27330      5.83675      4.66335         0.031645     -0.434204      0.223197
O       1.73590      5.74021      8.90940         0.322846     -0.149529     -0.440702
O      13.13719      5.76510      8.98578        -0.168532     -0.403761      0.207341
O       1.89315      9.46708      0.30751        -0.001861      0.063374     -1.004364
O       1.96800      9.47630     13.17938        -0.159351     -0.716954     -0.369210
O      13.27953      9.46068      0.17088         0.023017      0.060516      0.998714
O      13.21120      9.43082     12.99521         0.086922     -0.088465      1.468081
O       1.84536      9.61958      4.75101        -0.233892      0.081371      0.635346
O      13.39656      9.49936      4.75295        -0.667546      0.331637     -1.520917
O       1.77190      9.39859      8.84856         0.269384      0.072431      0.168305
O      13.34759      9.34651      8.95425        -0.673786      0.376184     -0.603849
O       5.58905      1.75039      0.43021         0.421961      0.657435     -0.276180
O       5.61963      1.85301     13.25790         0.278665      0.123133      0.545720
O       5.75276     13.29889      0.43380        -0.086234     -0.102539      0.491417
O       5.61390     13.37496     13.14375         0.445535     -0.114566      0.036943
O       5.63083      1.90272      4.63672        -0.110993     -0.185962      0.033466
O       5.74409     13.27037      4.61050        -0.344917      0.383691      0.580216
O       5.76433      1.96564      8.83532        -0.312431     -0.426687      0.206538
O       5.54906     13.21204      8.99867         0.091473      0.671799      0.162828
O       5.73466      5.70795      0.60922        -0.706351     -0.351694     -2.225645
O       5.68415      5.67758     13.17936        -0.269686     -0.033131     -1.648429
O       5.85237      5.87909      4.65610        -0.365959     -0.874789     -0.301032
O       5.80818      5.65294      8.81098        -0.122672      0.040880     -0.506009
O       5.54590      9.54316      0.58284         0.314718      0.308544     -0.510798
O       5.61824      9.41110     13.07612         0.108781      0.108346     -0.282637
O       5.61917      9.52987      4.62347         0.049894      0.303940     -0.959740
O       5.76651      9.52702      8.78042        -0.512271     -0.230091     -0.039102
O       9.56097      1.99065      0.43089        -0.358824     -0.526057      0.187529
O       9.38526      1.93907     13.10379         0.289856      0.016989      0.861228
O       9.54856     13.27956      0.40165        -0.386951      0.087317     -0.351609
O       9.41071     13.24795     13.13151         0.090996     -0.017193     -0.706357
O       9.44727      1.97701      4.54627         0.319898      0.032421     -0.104435
O       9.38935     13.30376      4.70458         0.400218      0.025076     -0.284784
O       9.40121      1.72703      8.97139         0.068702      0.519770     -0.271043
O       9.50249     13.33411      8.87503        -0.263007      0.217320      0.450998
O       9.44054      5.80232      0.29847         0.296200     -0.383948     -1.057110
O       9.60490      5.43933     13.23731        -0.541700      0.370738     -0.651993
O       9.47436      5.70187      4.64634         0.135308     -0.387323      0.281251
O       9.49761      5.59660      8.84107         0.005255      0.260851     -0.448762
O       9.35000      9.47333      0.29263         0.470013      0.294708      0.832160
O       9.45169      9.55597     13.10937        -0.213358     -0.307694     -0.056893
O       9.53028      9.50105      4.63127        -0.067945     -0.149566      0.706129
O       9.39321      9.67087      8.85851         0.119914     -0.895292     -1.030384
O       3.70564      2.02729      2.42033         0.615088     -0.184939      0.445011
O       3.71381      1.77627     15.29617         1.417691      0.563824      0.273586
O       3.78441     13.32444      2.43620        -0.052095     -0.396473      0.315372
O       3.77436     13.31393     15.24315         0.110056      0.020549      0.448586
O       0.06001      1.88430      2.56979        -0.599387      0.087806      0.166913
O      15.19491      1.97907     15.10381         0.394056     -0.230194      0.322226
O      15.17608     13.36872      2.59143         0.952842     -0.117578      0.383578
O       0.01380     13.26086     15.33439         0.473732      0.054710     -0.030707
O       3.75613      1.95265      6.78021         0.540703     -0.401844      0.169088
O       3.77011     13.32544      6.93754        -0.541465      0.290712      0.070909
O      15.13288      1.91476      6.61206        -0.342810      0.028384      0.401543
O      15.11358     13.14711      6.93687         0.345781      0.630932     -0.207129
O       3.81170      1.85290     11.00102        -0.249529     -0.219952     -0.180085
O       3.70550     13.26043     11.11268         0.156488      0.503098     -0.184959
O      15.15329      1.99053     10.90166         0.466554     -0.135652      0.245398
O      15.09550     13.16188     11.21151         0.840089      0.533683     -0.579688
O       3.74791      5.79026      2.70067        -0.216240     -0.628847     -0.187938
O       3.75795      5.76790     15.31687         0.840980     -0.418632      0.261932
O      15.12260      5.85315      2.61613         1.465242     -0.223503     -0.080193
O      15.18841      5.72643     15.25961        -0.288791      0.185111      0.034262
O       3.80260      5.79775      6.73852        -0.499738     -0.619310      0.079546
O      15.07254      5.59847      6.94437         0.464308     -0.067741     -0.639616
O       3.78437      5.78056     10.88860         0.112504     -0.074866      0.296287
O      15.13089      5.49213     11.13309         0.229590      0.614046     -0.432808
O       3.70128      9.53297      2.60516        -0.243477      0.095066     -0.013877
O       3.83551      9.43887     15.31266        -0.806687      0.221588      0.213780
O      15.11938      9.50008      2.54053         0.524005      0.091261     -0.268022
O      15.19276      9.45006     15.11021         0.600774     -0.580836      0.257654
O       3.75342      9.37587      6.78371        -0.131406      0.304296      0.164011
O      15.10845      9.62101      6.77663         0.257846     -0.070890      0.277963
O       3.77093      9.35855     10.93575        -0.949000     -0.337959     -0.067865
O      15.10629      9.57757     11.03365         0.762607     -0.243490      0.191728
O       7.60595      2.03285      2.55347        -0.428011     -0.531556     -0.293087
O       7.61023      1.88008     15.36410        -0.487696     -0.072078      0.000181
O       7.66959     13.27782      2.60335        -0.848922      0.440340     -0.298093
O       7.60928     13.39274     15.17826        -0.406765     -0.354284      0.659328
O       7.61043      1.87593      6.75921        -0.210753      0.254166     -0.076591
O       7.56439     13.18889      6.86500        -0.544117      0.492475      0.070654
O       7.55558      1.85949     10.99478        -0.063657      0.097521      0.443065
O       7.59735     13.12485     11.01975        -0.491999      0.921777      0.067137
O       7.60987      5.64742      2.35475         1.261582      0.212543      0.830474
O       7.58405      5.67033     15.20341         0.122077     -0.111244      0.341360
O       7.59717      5.56259      6.73246        -0.062828      0.351940      0.416390
O       7.56939      5.59039     11.18842         0.404857      0.019381     -0.305232
O       7.58526      9.62850      2.45192         0.362040     -0.410203      0.239483
O       7.55137      9.52081     15.25613        -0.025651      0.032683      0.144309
O       7.50343      9.61147      6.78978         0.951235     -0.268197     -0.278181
O       7.51870      9.62100     11.02391        -0.054131     -0.376081      0.048973
O      11.46331      2.02006      2.44610        -0.001205      0.027049      0.218351
O      11.37642      1.81334     15.27335        -0.462228      0.435160      0.149237
O      11.44337     13.34631      2.55543        -0.234677     -0.362611      0.182706
O      11.49295     13.34991     15.16499        -0.822564     -0.494587      0.487542
O      11.31380      1.85255      6.85038         0.495651      0.115436     -0.186504
O      11.29019     13.39235      7.01081         0.609489     -0.526717     -0.540239
O      11.37281      1.88598     10.99546        -0.657822     -0.372468      0.210900
O      11.37860     13.38146     11.19988        -0.744311     -0.472497     -0.710508
O      11.43698      5.76742      2.57026        -0.269017     -0.129850     -1.021505
O      11.38645      5.71784     15.22146        -0.550229     -0.135050      0.571655
O      11.31578      5.91032      6.75755         0.930377     -0.392801      0.403677
O      11.31246      5.84193     11.04633        -0.997833     -0.339923      0.136700
O      11.42852      9.46224      2.45847        -0.496340      0.435934     -0.052105
O      11.45984      9.72838     15.16527        -1.115608     -0.808751     -0.156874
O      11.33957      9.26590      6.76495         0.633509      0.323606      0.420157
O      11.28561      9.22681     10.98652        -0.064610      0.633274     -0.055285
O       1.88773      3.86699      2.61438        -0.641930     -0.353761     -0.212264
O       1.80289      3.80889     15.21709         0.817826      0.484134      0.225141
O       1.98085      0.01530      2.58032        -0.277434      0.398195     -0.449714
O       1.86502     15.17229     15.21700        -0.488666      0.566977     -0.017545
O      13.44587      3.88686      2.27904        -0.293504     -0.663815      0.586698
O      13.22197      3.81265     15.15612         0.057014     -0.738232      0.425151
O      13.21303      0.03651      2.55233         0.705460      0.245017      0.095335
O      13.53273     15.11144     15.15180        -0.671511      1.227581      0.285889
O       1.88511      3.84701      6.98919         0.044156     -0.601524     -0.510733
O       1.79075      0.01946      6.73698        -0.073085     -0.154359      0.613222
O      13.09588      3.85210      6.78631         0.099813     -0.690751     -0.396729
O      13.16076     15.14161      6.88167         0.881107      1.296658     -0.360670
O       1.95750      3.76139     10.91232        -0.193196     -0.265738      0.302112
O       1.78751     15.18288     11.00000         0.055003     -0.355563      0.403019
O      13.13519      3.70147     11.13373         0.091107      0.487506     -0.124381
O      13.20903      0.03795     11.14901         0.844693     -0.635852     -0.721112
O       1.96743      7.63637      2.68872        -0.850575      0.070386     -0.835725
O       1.97373      7.59512     15.42160        -0.928226     -1.039552     -0.678831
O      13.26787      7.67835      2.48419         0.276490     -0.019632      0.052175
O      13.17674      7.58496     15.27870         0.262687      0.385866     -0.372500
O       1.81653      7.57801      6.76895        -0.397103      0.343158      0.122328
O      13.42197      7.58193      6.88803        -0.573222      0.477420     -0.861812
O       1.59391      7.51921     11.11882         1.059707      0.565857     -0.138917
O      13.36035      7.49101     11.05097         0.206508      1.023056      0.306792
O       1.92521     11.36423      2.48678        -0.538612      0.786097      0.362871
O       1.77298     11.38205     15.09736         0.366791     -0.546267      0.560040
O      13.34378     11.42376      2.49654        -0.251702     -0.843826      0.099994
O      13.45547     11.35126     15.32399        -0.150917      0.832335     -0.308935
O       1.96167     11.37216      7.02065        -0.434416      0.502378     -0.808019
O      13.11879     11.40852      6.90305        -0.274382     -1.458124     -0.134123
O       1.90360     11.30541     11.06991         0.077686     -0.125906     -0.294187
O      13.14948     11.34420     10.99368        -0.478402     -0.832364     -0.141616
O       5.73901      3.78983      2.59510        -0.557841     -0.515895      0.192363
O       5.56654      3.81550     15.40746         0.843602     -0.622070     -0.335401
O       5.61536      0.04484      2.61655         0.510202     -0.641999      0.179167
O       5.68353     15.17406     15.33070         0.012158      0.354424      0.232052
O       5.73112      3.80274      6.70719        -0.543389     -0.588992      0.062907
O       5.73160     15.16625      6.85555        -0.298637      0.403915     -0.092057
O       5.68135      3.78673     11.03668        -0.199604     -0.292624     -0.281323
O       5.58505     15.18849     11.05816         0.505279      0.116253     -0.215771
O       5.74900      7.64310      2.56882         0.080650     -0.398759      0.254399
O       5.74627      7.61853     15.21208        -0.384412     -0.763310      0.431316
O       5.75499      7.62116      6.76876        -0.244190     -0.107489      0.102962
O       5.73106      7.55706     11.04241         0.297185     -0.138215     -0.483795
O       5.69877     11.44932      2.57626        -0.244311      0.230810      0.020233
O       5.64466     11.36121     15.16464         0.280120      0.901140      0.811413
O       5.59566     11.43213      6.79467        -0.466188      0.398110     -0.257493
O       5.54756     11.34787     11.00868         0.116313     -0.087279      0.223200
O       9.61101      3.85693      2.43678        -0.282429      0.316714     -0.000272
O       9.38544      3.76921     15.42383         0.740486     -0.539912     -0.272145
O       9.56821      0.03145      2.51931        -0.293516     -0.239425      0.013757
O       9.51461     15.13512     15.20267        -0.249470      1.251837      0.404331
O       9.55191      3.80970      6.81798         0.205993     -1.650494     -0.064561
O       9.44628      0.03485      6.82913        -0.229266     -0.047696     -0.170848
O       9.46959      3.78181     10.95232        -0.015130     -0.154349      0.580779
O       9.40192     15.19623     11.13926        -0.029096     -0.059848     -0.003032
O       9.49591      7.58881      2.44846         0.009910      0.144765     -0.410441
O       9.57538      7.69291     15.23976        -0.003334     -1.540574     -0.009168
O       9.32117      7.54000      6.78415        -0.002232      0.438661      0.196575
O       9.26195      7.55111     10.83789        -0.101425      0.436447      0.142986
O       9.62223     11.39009      2.56968        -0.275922     -0.279753     -0.329123
O       9.38933     11.40232     15.28481         0.516709      0.613831      0.259767
O       9.59142     11.37631      6.83770         0.168800     -0.024823     -0.135581
O       9.47217     11.41437     10.93003         0.517944     -0.266603      0.099870
