  # total energy = -7877.91648449 
CRSYTAL
PRIMVEC
    15.2000000000000000    0.0000000000000000    0.0000000000000000
     0.0000000000000000   15.2000000000000000    0.0000000000000000
     0.0000000000000000    0.0000000000000000    17.000000000000000
PRESSURE
7.56201 7.73491 4.19091 0.181434 -0.132636 -0.026146
PRIMCOORD
320 1
Pb       3.92167      3.73205      4.20043        -0.873310     -0.121061     -0.230300
Pb       3.56944      3.66080     16.99760         0.320144      0.266894     -0.416808
Pb       3.97515     14.96310      4.17852        -0.629862      0.503229      0.317677
Pb       3.72085     15.14971      0.00539         0.316614      0.164249     -0.786898
Pb      15.16782      3.68726      4.28855        -0.192746     -0.179328     -0.566339
Pb      15.05645      3.83644     16.95960         0.632479      0.134484      0.391323
Pb      15.18643     14.96457      4.10007        -0.416203      0.671727      0.117491
Pb      15.13382      0.04797      0.01851        -0.080826     -0.577948      0.294392
Pb       3.53661      3.77371      8.54838         0.197372      0.267047      0.071576
Pb       3.76325      0.17140      8.20322         0.176178     -0.994339      1.036872
Pb      15.02918      3.82363      8.34098         0.739603      0.151776      0.075745
Pb       0.19306      0.10240      8.40683        -0.855336     -0.261959     -0.141282
Pb       3.74982      3.77167     12.85001         0.090181      0.381739     -0.374139
Pb       3.79638     15.13956     12.65610        -0.055690     -0.145213      0.535214
Pb      15.18362      3.70458     12.81976        -0.340550      0.693603     -0.084711
Pb      15.08437     15.07639     12.58894         0.251301      0.715126      0.702715
Pb       3.86741      7.45561      4.14894        -0.774663      0.753605      0.206487
Pb       3.71410      7.48233      0.05820         0.330141      0.208236     -0.561907
Pb       0.01059      7.36040      4.21561         0.179057      0.513320      0.247140
Pb       0.02440      7.58689      0.19669        -0.166799     -0.405978     -0.809319
Pb       3.73402      7.49646      8.58152        -0.181823      0.225516     -0.237091
Pb       0.04774      7.69056      8.50486         0.361130     -0.700712     -0.373175
Pb       3.79738      7.76858     12.91076        -0.370743     -0.488056     -1.006098
Pb      15.17216      7.76745     12.89132        -0.421815     -0.488229     -0.796109
Pb       4.04146     11.33216      4.15135        -0.809763      0.392841      0.477580
Pb       3.62434     11.37476     16.69249         0.779830      0.276768      0.984122
Pb       0.02328     11.24736      4.25153        -0.004787      0.309943     -0.250451
Pb      15.08454     11.37673      0.05587         0.216258      0.305488     -0.862336
Pb       3.82077     11.36064      8.34487        -0.174153      0.172130      0.772555
Pb       0.04781     11.34952      8.45011         0.023584      0.405602     -0.307761
Pb       3.89410     11.48186     12.66072        -0.217523      0.633522     -0.279407
Pb       0.01408     11.61559     12.58917        -0.218215     -0.871590      0.394507
Pb       7.64036      3.86269      4.30769        -0.063066     -0.268697     -0.632764
Pb       7.60417      3.77757     16.95547        -0.508235      0.248895     -0.766413
Pb       7.57953      0.07174      4.24883         0.291308     -0.326936      0.267619
Pb       7.49822      0.02483     16.96654        -0.181928     -0.321525     -0.640497
Pb       7.38461      3.81017      8.60219         0.221662      0.352211     -0.207421
Pb       7.51127      0.04527      8.56317         0.288279     -0.574527     -0.426519
Pb       7.59528      3.66480     12.67164        -0.402010      0.269376      0.068862
Pb       7.61373     15.19215     12.70684        -0.161396     -0.520745     -0.007033
Pb       7.37120      7.56368      4.27802         1.112879      0.426619      0.099574
Pb       7.70475      7.37773     16.98017        -0.601175      0.586209     -0.015933
Pb       7.59953      7.51971      8.63396         0.022113      0.011228     -0.389724
Pb       7.76264      7.59404     12.84420        -0.188633     -0.196696     -1.075811
Pb       7.68325     11.46101      4.16832        -0.165250     -0.032343      0.009309
Pb       7.51650     11.28863     16.97002         0.209591      0.450384      0.337794
Pb       7.63153     11.23310      8.41499         0.069466      0.608926      0.661032
Pb       7.68584     11.39773     12.83239        -0.227713      0.355475     -0.797284
Pb      11.39288      3.75594      4.36020        -0.220347     -0.387466     -0.390774
Pb      11.40518      3.96157     16.95335        -0.387056     -0.727559      0.159148
Pb      11.27230     15.19769      4.28832         0.432761     -0.138955     -0.200460
Pb      11.25572      0.05049      0.01107         0.623920      0.056568     -0.277624
Pb      11.33065      3.74998      8.49068        -0.022270      0.396035     -0.338694
Pb      11.43680     15.13463      8.67748        -0.040258     -0.049405     -0.976929
Pb      11.47708      3.79460     12.65554        -0.226909      0.290480      0.375088
Pb      11.31475      0.01363     12.78229         0.603789     -0.364304     -0.418088
Pb      11.34707      7.44182      4.34729        -0.440037      0.782803     -0.221997
Pb      11.40266      7.59088      0.11708         0.112042      0.010448     -0.561985
Pb      11.50033      7.69241      8.39208        -0.968627     -0.466499      0.256485
Pb      11.46292      7.67563     12.67162         0.054149     -0.311228      0.325191
Pb      11.42650     11.51528      4.28622        -0.399326     -0.300029     -0.522533
Pb      11.33144     11.21003      0.11657        -0.217016      0.420341      0.207669
Pb      11.38760     11.30571      8.47146         0.159409      0.267639     -0.261599
Pb      11.49455     11.36263     12.96138         0.448144     -0.012123     -0.921434
Ti       1.86313      1.82098      2.25144        -0.285837      1.044742      0.723117
Ti       1.75211      1.86082     14.91404         1.326703      0.427737      1.133869
Ti       1.88588     13.22823      2.19125         0.313873      0.475262      1.007971
Ti       1.78588     13.31689     14.93743         0.084410      0.348163     -1.148197
Ti      13.23617      1.87731      2.23098        -0.079557     -0.315728      0.181581
Ti      13.25747      1.91067     15.01651        -0.513794     -0.124996      0.714972
Ti      13.27231     13.21750      2.05607        -0.621193      0.931621      1.572419
Ti      13.22185     13.37550     14.98097         0.918869     -0.802044      1.274761
Ti       1.86278      1.88677      6.23080        -0.272709      0.971910     -0.365888
Ti       1.98759     13.27165      6.41528        -1.221673     -0.271933     -0.143335
Ti      13.16859      1.81721      6.51142         1.059656     -0.038368      0.179300
Ti      13.32147     13.27104      6.52844         0.715157      0.230963      0.872035
Ti       1.78841      1.93536     10.81123         0.210599     -0.158893     -0.017655
Ti       1.98452     13.35816     10.58403         0.248140     -0.080274      1.586561
Ti      13.25721      1.98480     10.64494         0.799843     -1.248762      0.000197
Ti      13.31022     13.29739     10.58406        -0.269741     -0.412899      0.763045
Ti       1.86385      5.65980      2.24386        -0.281606     -1.126674      0.648214
Ti       1.81368      5.77815     14.90417        -0.823664     -1.096552      0.047799
Ti      13.18291      5.64315      2.32398         0.103234     -0.245937     -0.931683
Ti      13.24402      5.72323     14.95805         0.320799      0.188016     -0.571807
Ti       1.93809      5.61376      6.42513        -2.289077      1.172758     -0.230423
Ti      13.14268      5.70230      6.48080         1.502008     -0.091778      0.447649
Ti       1.81744      5.66261     10.80352         0.185194      1.326359      0.292041
Ti      13.31901      5.74115     10.66512        -0.304006      0.350490     -0.256079
Ti       1.94487      9.55175      2.18443        -0.190473     -0.653628      0.450877
Ti       1.83342      9.49198     14.89519         0.161456      0.293286      1.504476
Ti      13.32291      9.45373      2.28981        -1.422329      0.273159      0.894470
Ti      13.32291      9.49234     15.07421        -0.017975     -0.519627     -1.625211
Ti       1.94377      9.42841      6.41571        -0.344034     -0.734654      0.534711
Ti      13.32219      9.50363      6.39496        -0.636415      0.105245      0.504633
Ti       1.96947      9.56364     10.78340        -1.046391     -0.743501      0.197296
Ti      13.28710      9.48596     10.67703         0.104328      0.839527      2.567823
Ti       5.65087      1.94824      2.23251         0.224240      0.281383     -0.807034
Ti       5.68232      1.92929     14.94180        -0.769398      0.121549      1.403914
Ti       5.73362     13.39651      2.08246        -0.461199     -1.806331     -0.691005
Ti       5.71716     13.26463     14.86832        -0.122010      1.475008      0.733464
Ti       5.67260      1.96285      6.46590        -0.296806     -0.889077     -0.566162
Ti       5.80059     13.25925      6.56570        -0.279673      0.678524     -0.322022
Ti       5.59128      1.85694     10.68989         0.858264      0.549551      1.450476
Ti       5.84515     13.32242     10.62582        -0.879299     -0.490000      0.402198
Ti       5.65355      5.71557      2.18798        -0.006258     -0.678644     -1.846765
Ti       5.55513      5.79897     14.81722         1.461185     -2.615614      1.522088
Ti       5.58671      5.71503      6.47569         0.882888     -0.039029      0.479177
Ti       5.64700      5.74109     10.74930        -0.552018     -0.755212      1.250522
Ti       5.68514      9.48828      2.14677         0.488259      0.496930     -0.079524
Ti       5.66436      9.45993     14.94076        -0.119308      0.456062      0.909346
Ti       5.66837      9.47256      6.48446        -0.113596     -0.983375     -0.381505
Ti       5.71206      9.49278     10.79336         0.606286      0.587142      0.545705
Ti       9.43516      1.85861      2.13875         0.178238      0.827068      1.315115
Ti       9.47539      1.88395     14.94188        -0.135957      0.692636      0.938914
Ti       9.48368     13.37661      2.14271         0.563183     -1.166209      0.650319
Ti       9.54238     13.30234     14.96109        -1.361362      0.474038      0.680932
Ti       9.35938      1.87278      6.58383         1.264530     -0.037686      0.904626
Ti       9.55341     13.32212      6.55884        -0.048490     -0.199318     -0.370779
Ti       9.49212      1.76947     10.68401        -0.294543      0.479463      0.755835
Ti       9.63337     13.16715     10.63208        -0.550956      1.066719     -0.167828
Ti       9.39850      5.68622      2.28296         0.084135     -0.297491      0.170043
Ti       9.41725      5.71954     14.84223         0.419882     -0.829173      2.430557
Ti       9.38029      5.66563      6.54308         0.211208      0.832248     -0.284818
Ti       9.47033      5.61640     10.71764         0.509450      1.324873      1.024798
Ti       9.50212      9.46901      2.46457         0.257153      0.368808      0.106085
Ti       9.46272      9.54094     15.05591         1.046123     -0.021335     -0.151867
Ti       9.47680      9.49398      6.50218        -0.084800     -0.473793     -1.237658
Ti       9.51617      9.50295     10.72299         0.685484     -1.577338     -0.747211
O       1.91333      1.97028      0.47323         0.082534     -0.383955     -0.667462
O       1.67319      1.80721     13.15189         0.496857      0.606360     -0.097026
O       1.83890     13.18697      0.46992         0.291728     -0.094749     -1.810786
O       1.74608     13.39496     13.09874         0.270630     -0.278314      1.128804
O      13.19411      1.96882      0.46592         0.104688     -0.031914     -0.393236
O      13.30785      1.93515     13.27251        -0.170359      0.027405     -0.831979
O      13.24273     13.30919      0.32002        -0.012753     -0.709676     -0.738906
O      13.38215     13.42278     13.24971        -0.345415     -0.341725     -1.074168
O       1.89612      1.93844      4.44762        -0.150792     -0.250894      0.923931
O       1.93948     13.35751      4.62721        -0.283685     -0.182399      0.317625
O      13.26350      1.87410      4.75193        -0.136761     -0.083803     -0.330023
O      13.46812     13.30979      4.77936        -0.334454     -0.222157     -0.897180
O       1.71244      2.03366      9.03197         0.799041     -0.101720     -0.230892
O       1.86898     13.37578      8.86780         0.375232     -0.155259     -1.485076
O      13.33729      1.91873      8.85762        -0.329679      0.078678      0.368350
O      13.32168     13.22050      8.80701        -0.260814      0.233884      0.808852
O       1.83411      5.73535      0.48941         0.196792      0.196962     -0.904651
O       1.78435      5.68121     13.13032         0.152794      0.141005     -0.028307
O      13.23713      5.57074      0.50732        -0.564274      0.261196     -0.031235
O      13.38899      5.79588     13.18642        -0.470232     -0.520843     -0.171698
O       1.91930      5.71054      4.62711        -0.002840      0.091965     -0.401330
O      13.13178      5.66460      4.68334         0.079549      0.248079     -0.686418
O       1.81956      5.66890      9.00151         0.101099      0.018365     -0.648195
O      13.15516      5.73945      8.83346         0.414754      0.132350      0.606520
O       1.90965      9.50757      0.38208        -0.164900      0.083099      0.632494
O       1.88683      9.51015     13.17010         0.180785      0.126205     -1.591677
O      13.25474      9.50615      0.52069         0.218246      0.050650     -1.907697
O      13.24523      9.35478     13.23987        -0.037782      0.425731      0.597866
O       1.85810      9.36242      4.69220        -0.105460      0.160404     -1.260076
O      13.24167      9.46362      4.65611         0.571297      0.153160     -0.960382
O       1.89825      9.46765      8.99705         0.073446     -0.120764     -0.232325
O      13.22780      9.41571      8.95322         0.249147      0.228994     -1.485960
O       5.65174      1.98017      0.43507        -0.105920     -0.053320      0.081513
O       5.70417      1.78430     13.22487         0.249607      0.329541     -1.742828
O       5.75081     13.36846      0.29296        -0.429520     -0.244284      0.661804
O       5.77961     13.32903     13.06154        -0.210092     -0.370633      1.135708
O       5.63440      1.84110      4.67814         0.465802      0.163890     -0.028812
O       5.76189     13.24330      4.76603        -0.294534      0.458305     -0.581675
O       5.56323      1.83270      8.93034         0.100079      0.249729     -0.510849
O       5.69369     13.27682      8.84591         0.260271      0.087197     -0.441634
O       5.61013      5.72840      0.35200         0.279460      0.122108      1.016566
O       5.73406      5.84554     13.07793        -0.169514     -0.267985     -1.125728
O       5.64406      5.80340      4.67276        -0.274865     -0.362515      0.334742
O       5.69173      5.69024      8.99778        -0.200970     -0.038186     -1.297199
O       5.53133      9.43799      0.39264         0.598546     -0.031661     -0.242236
O       5.57446      9.64467     13.15402         0.785502     -0.502865      0.297912
O       5.72993      9.37605      4.70660        -0.439808      0.203333     -0.038962
O       5.66834      9.56483      9.04795         0.131598     -0.152098     -0.903862
O       9.40949      1.78441      0.38287         0.112946      0.077340     -0.227136
O       9.51434      1.88041     13.17654        -0.262455      0.239405     -0.732444
O       9.52519     13.43144      0.37392        -0.122929     -0.012866      0.021657
O       9.50175     13.17076     13.20884         0.036426     -0.058145     -1.102997
O       9.38513      1.83290      4.84557        -0.189838      0.316000     -1.021740
O       9.56135     13.29736      4.73363        -0.279517     -0.056225      0.430081
O       9.53703      1.73736      8.92147        -0.049833      0.317507     -0.057669
O       9.66413     13.38644      8.80070        -0.201518     -0.418759      1.415456
O       9.45064      5.57285      0.48353        -0.343356      0.917010      0.521328
O       9.39079      5.65052     13.12985        -0.155518      0.060129     -1.627999
O       9.50035      5.55686      4.75255        -0.513402     -0.021272     -0.438284
O       9.48569      5.79690      8.98958         0.076392     -0.173646     -1.534534
O       9.48355      9.50432      0.69089         0.258714     -0.003312     -1.580432
O       9.57960      9.70873     13.28599        -0.362313     -0.515985      0.145834
O       9.45583      9.62576      4.69714        -0.054153     -0.035955     -0.165039
O       9.42438      9.34677      8.91323         0.146693      0.325945     -0.050522
O       3.80266      1.93857      2.59604        -0.189628     -0.253171     -0.110105
O       3.70717      2.11107     15.23702        -0.258393     -0.320848     -0.001351
O       3.81720     13.27940      2.53275        -0.063496      0.187374      0.017786
O       3.70764     13.24614     15.14609         0.445145     -0.566438      0.355697
O      15.12461      1.90621      2.60879         0.315875      0.135930     -0.155441
O      15.16201      1.75014     15.48488        -0.325755      0.828034     -0.558346
O      15.17227     13.17493      2.43500        -0.112851     -0.019975      0.530059
O      15.14231     13.38385     15.37095         0.458277     -0.089558      0.255449
O       3.76513      1.95127      6.69452        -0.374449     -0.149801      0.311092
O       3.82518     13.40442      6.73748        -0.531024     -0.194118      0.323810
O       0.04121      1.97635      6.75460        -0.897601     -0.147687     -0.107102
O       0.09447     13.25830      6.92988        -0.013411      0.012837     -0.517176
O       3.83359      2.03429     11.25446        -1.206875     -0.173830     -0.570171
O       3.82864     13.24242     10.92682         0.222338      0.078665      0.433593
O      15.13951      1.84782     11.14199        -0.705334     -0.150948     -0.379831
O       0.03392     13.38564     11.00632        -0.924737     -0.215147     -0.587631
O       3.80579      5.62839      2.50585        -0.988282      0.770480      0.364904
O       3.72030      5.69208     15.15880        -0.018103     -0.030553      0.327500
O      15.04645      5.60933      2.46563         1.664487      0.392585      0.947962
O      15.12496      5.75758     15.36992         0.254811      0.648656      0.335603
O       3.73024      5.62090      6.89504         0.862935      0.266111      0.224705
O      15.15243      5.66535      6.62230        -0.299512      0.271461      0.465996
O       3.70770      5.43003     10.94340         0.725547      0.410482      0.565494
O      15.13369      5.87331     11.05832        -0.005294     -0.242575     -0.171323
O       3.83520      9.46865      2.58816        -1.044319     -0.312414      0.026436
O       3.78018      9.46432     15.25288         0.105413      0.143474     -0.096609
O      15.15938      9.54301      2.51415         1.651918      0.087739      0.318116
O       0.00024      9.27446     15.23158        -0.423177      0.154843      0.784437
O       3.78894      9.35714      6.78655         0.336699      0.187349      0.549837
O      15.18401      9.44843      6.76099         0.260323      0.141365      0.434331
O       3.86576      9.66512     11.15663        -0.660353      0.127661     -0.172344
O      15.14622      9.58385     11.10750         0.461870     -0.323861     -0.318923
O       7.54581      1.76613      2.68804         0.212463      0.465663     -0.553116
O       7.54790      1.77102     15.37673         0.376016      0.307078     -0.291487
O       7.58007     13.31446      2.44365         0.251633      0.236760      0.387918
O       7.57796     13.43993     15.23880        -0.543721     -0.472080      0.061310
O       7.53239      1.89339      6.98636        -0.396600      0.300285     -0.029833
O       7.62473     13.29614      6.81961         0.134847     -0.558505      0.415192
O       7.58195      1.72701     11.02871         0.042402      0.282885     -0.147793
O       7.69885     13.35699     11.02603         0.567596      0.402509     -0.193375
O       7.45120      5.72495      2.69577         2.112613     -0.237612     -0.163168
O       7.54323      5.77476     15.31126         0.556992      0.287249     -0.101370
O       7.49581      5.73897      6.87520         0.400023     -0.489172      0.136705
O       7.59428      5.86873     10.91362        -0.260591      0.103164      0.727052
O       7.52357      9.50554      2.64185         0.383391      0.143147     -0.090633
O       7.60393      9.43471     15.38315        -0.370136      0.229101     -0.223819
O       7.50471      9.52915      6.84908         0.751932     -0.274053      0.176596
O       7.71916      9.47447     11.17358        -2.354137     -0.338268      0.360026
O      11.29799      1.85490      2.65491         0.020181      0.122121     -0.192982
O      11.35556      1.94447     15.32366         0.015029      0.081200      0.047209
O      11.38279     13.32343      2.58229         0.250448      0.236257     -0.092747
O      11.35499     13.25232     15.25663         0.950846     -0.068246      0.247983
O      11.33197      1.90896      6.81098        -0.145280     -0.000388      0.353634
O      11.42127     13.27476      6.81593         0.344133     -0.022170     -0.028020
O      11.41522      1.96215     11.10472        -0.431239      0.188707     -0.249527
O      11.44617     13.23418     11.20835        -0.692772      0.110862     -0.561193
O      11.26739      5.68416      2.61521         0.133908     -0.335681      0.117225
O      11.28142      5.54063     15.33000         0.610650      0.584520     -0.402017
O      11.29251      5.66754      6.78847         0.321119      0.124324      0.369350
O      11.41841      5.65365     11.18861        -0.207800     -0.221200     -0.448717
O      11.42860      9.48443      2.65617        -0.929920      0.029436      0.176192
O      11.47153      9.57828     15.48172        -1.831015     -0.083608      0.069108
O      11.34944      9.61971      6.79490         1.066734     -0.734847      0.237083
O      11.36737      9.64256     11.22017         0.658375     -0.585749     -0.369906
O       1.91312      3.77054      2.53598        -0.238951      0.781324      0.171452
O       1.65972      3.88261     15.34144         0.528535     -1.137701     -0.369629
O       1.80759     15.16230      2.42488         0.328326     -0.580280      0.289319
O       1.95808      0.00496     15.34603        -0.174653      0.138921      0.162521
O      13.18943      3.75226      2.74486        -0.178851      0.157669     -0.099730
O      13.37368      3.82667     15.33867        -0.409560     -0.965737     -0.064441
O      13.31399     15.15780      2.39106        -0.007689     -0.180659      0.583584
O      13.25310      0.00460     15.40112        -0.467879      0.467654      0.058808
O       1.87144      3.78606      6.75109         0.200034     -0.502152      0.218642
O       1.83394      0.09978      6.70466         0.412589     -1.365134      0.126218
O      13.21612      3.82069      6.84502        -0.354662     -0.556474     -0.131547
O      13.27769     15.15626      6.92135         0.254761      0.629188     -0.141882
O       1.67769      3.82572     11.16449         0.343903     -0.872677      0.269932
O       2.00585      0.05792     11.03140        -0.228230     -0.196906     -0.291987
O      13.37024      3.83690     10.96292        -0.152671     -0.368446      0.352006
O      13.13659     15.17776     11.07065         0.351743      0.492291     -0.562017
O       1.78708      7.59825      2.50132         0.288327      0.155982      0.097214
O       1.89546      7.62548     15.29321         0.355462     -0.525730      0.337957
O      13.20986      7.58856      2.41017         0.255007     -1.042197      0.806118
O      13.11752      7.50549     15.29902        -0.102564      1.409186      1.119436
O       1.87281      7.53279      6.83850         0.022103     -0.004993      0.422107
O      13.16655      7.64709      6.76122         0.278488     -0.757598      0.061571
O       1.99480      7.65970     11.15218         0.182212     -0.051691     -0.146371
O      13.26573      7.62752     11.09037        -0.571278      0.220515     -0.331234
O       1.94162     11.39533      2.68481        -0.108307     -1.114950     -0.202900
O       1.75327     11.37905     15.20926        -0.068998      0.153113      0.376999
O      13.19351     11.37802      2.52966         0.397976      0.527557      0.174021
O      13.45946     11.33403     15.16988        -0.283658      1.059495      0.703348
O       1.98323     11.30775      6.76611        -0.213440      1.233746      0.052497
O      13.32280     11.36518      6.85506         0.142152     -0.003938      0.018934
O       1.87906     11.45645     10.99106        -0.123355      0.038058      0.258763
O      13.19743     11.45830     11.08016         0.986009     -0.244195     -0.137533
O       5.69111      3.84588      2.62524         0.359200     -0.847223      0.107934
O       5.83290      3.84323     15.09637        -0.308120     -0.043573      0.195298
O       5.59146      0.01593      2.38374         0.273028     -0.039325      0.699095
O       5.45884     15.18518     15.27772         0.395832     -0.207634      0.247795
O       5.63636      3.78833      6.78813         0.420309      0.505596      0.332389
O       5.72234      0.00931      6.84967        -0.080863      0.298783     -0.032438
O       5.80974      3.81740     10.99980         0.334484     -1.042515      0.373762
O       5.63753     15.15213     11.17843         0.087496      1.039382     -0.788828
O       5.73927      7.56481      2.56341        -0.759303      0.880917     -0.065230
O       5.70110      7.56865     15.21126        -0.270301      1.864565      0.289067
O       5.67580      7.49800      6.93575        -0.345115      1.334593     -0.062900
O       5.41652      7.60818     11.06521         0.683964      0.670218     -0.039063
O       5.63272     11.43703      2.57882         0.801498     -0.422135     -0.624972
O       5.73416     11.36523     15.44603        -0.038053      0.131791     -1.066875
O       5.57583     11.35584      6.76800         0.193312      0.020618      0.231267
O       5.89075     11.53662     11.10937        -0.517893     -2.000787      0.087237
O       9.31562      3.74992      2.52081         0.048216     -0.063547      0.410214
O       9.35081      3.84280     15.33981        -0.140933     -0.925257     -0.357653
O       9.52533      0.01042      2.75551        -0.644372     -0.185395     -0.753839
O       9.50039      0.01279     15.21507         0.429733     -0.041031      0.312004
O       9.43375      3.84513      6.95160        -0.245129     -1.272064      0.284013
O       9.41738     15.18182      6.84029         0.190333      0.342077      0.101141
O       9.35123      3.74484     11.00619         0.389782     -0.268919     -0.062245
O       9.63585     15.12089     11.07083        -0.011139      0.562534      0.036812
O       9.49451      7.57663      2.71446        -0.496146     -0.502593     -0.112505
O       9.54337      7.64211     15.36622         0.035690     -0.300030     -0.160700
O       9.51931      7.62831      6.65021        -0.224548     -0.726116      0.646283
O       9.57338      7.61155     11.14760        -0.107337     -0.312391      0.283447
O       9.54270     11.46492      2.60528        -0.377894      0.147389      0.030398
O       9.42898     11.45937     15.41112        -0.165538     -1.250466      0.460403
O       9.56894     11.33232      6.92979        -1.003876      1.476348      0.172190
O       9.46502     11.34986     10.83827        -0.162546      1.077728      0.436777
