  # total energy = -7883.12160211 
CRSYTAL
PRIMVEC
    15.3600000000000000    0.0000000000000000    0.0000000000000000
     0.0000000000000000   15.3600000000000000    0.0000000000000000
     0.0000000000000000    0.0000000000000000    17.440000000000000
PRESSURE
1.26782 1.121 -4.62625 -0.170604 -0.321021 0.021448
PRIMCOORD
320 1
Pb       3.86580      3.76859      4.28409        -0.058168     -0.068692      0.195915
Pb       3.73890      3.81579     17.42703         0.226800      0.197886     -0.083864
Pb       3.80937     15.29023      4.31024         0.259004     -0.078515      0.218836
Pb       3.76417     15.25718     17.35484         0.077914      0.190439      0.251743
Pb       0.03426      3.78683      4.26158        -0.170321      0.093443      0.649512
Pb      15.30224      3.80238     17.33909         0.514712      0.007598      0.390953
Pb      15.35829      0.00909      4.33707         0.105813     -0.310639      0.174445
Pb       0.09523     15.35893     17.36234        -0.096372     -0.390351      0.380855
Pb       3.83113      3.78400      8.71527         0.289748      0.424889      0.296382
Pb       3.83480      0.02044      8.50540         0.078443     -0.350076      0.993458
Pb       0.10926      3.86181      8.72564        -0.314899      0.052220      0.260135
Pb      15.30662     15.29856      8.69920        -0.082665      0.310296      0.083203
Pb       3.83024      3.85345     13.08448         0.104073     -0.030127     -0.098030
Pb       3.87358      0.10742     13.03178        -0.176444     -0.279234      0.627663
Pb       0.03122      3.84740     13.01782        -0.094284     -0.081032     -0.246153
Pb      15.32216     15.29078     13.09461        -0.025162     -0.039909     -0.198629
Pb       3.80070      7.64916      4.35399         0.052598      0.218862      0.304370
Pb       3.88686      7.63565     17.33626        -0.369161     -0.029860      0.534390
Pb      15.26800      7.72740      4.30244         0.237261     -0.319998      0.609062
Pb      15.33962      7.54667      0.00709         0.478284      0.315219     -0.063575
Pb       3.72200      7.73567      8.59719         0.362296     -0.023726      0.949007
Pb      15.35445      7.71683      8.62928        -0.106881     -0.000270      0.595960
Pb       3.87790      7.65945     12.97019        -0.559827      0.016446      0.888551
Pb      15.27232      7.61968     13.02370         0.278332      0.464864     -0.261239
Pb       3.93712     11.49203      4.37824        -0.299359      0.079561      0.141426
Pb       3.69840     11.62981     17.39897         0.300071     -0.688779      0.294105
Pb      15.23861     11.40355      4.42380         0.400800      0.519725     -0.187525
Pb      15.34535     11.51506     17.41781         0.132291     -0.133688     -0.057030
Pb       3.90727     11.45457      8.63603        -0.291104      0.079120      0.159087
Pb      15.32080     11.59021      8.69817         0.217362     -0.482759      0.092435
Pb       3.78944     11.48381     13.05135         0.012454     -0.038394      0.239275
Pb      15.35350     11.51561     12.96863        -0.084443     -0.467904     -0.003269
Pb       7.63700      3.84813      4.26008         0.009617     -0.445069      0.165380
Pb       7.57053      3.76032      0.06340        -0.030461      0.283853     -0.526596
Pb       7.63256     15.23412      4.40556         0.105216      0.012850     -0.170558
Pb       7.77645     15.33414     17.42882        -0.400132     -0.151854     -0.053732
Pb       7.66203      3.87363      8.61554         0.055659     -0.114155      0.165006
Pb       7.64866      0.08624      8.72726         0.151338     -0.129206     -0.335349
Pb       7.68941      3.81833     12.93332         0.007036      0.095768      0.966418
Pb       7.61345     15.33421     13.04415        -0.113009      0.034984      0.352730
Pb       7.74404      7.69665      4.37393        -0.075125      0.218470      0.137716
Pb       7.58492      7.74787     17.36680        -0.060599     -0.721520      0.511803
Pb       7.77239      7.54431      8.70137        -0.453112      0.529243      0.276480
Pb       7.75179      7.73073     13.07695        -0.505535     -0.259030      0.375563
Pb       7.64906     11.50717      4.33605        -0.184462     -0.451273      0.424974
Pb       7.66427     11.42188     17.38165         0.126519      0.319582      0.013139
Pb       7.63801     11.59156      8.66384         0.287231     -0.551819      0.346474
Pb       7.57889     11.45105     12.97166         0.112802      0.192956      0.475813
Pb      11.45755      3.89891      4.28620         0.192147     -0.257356     -0.086518
Pb      11.53201      3.83480     17.42050        -0.200720     -0.203225      0.154815
Pb      11.56369     15.28774      4.43842        -0.186186      0.140477     -0.537565
Pb      11.47291     15.35019      0.09042        -0.099998     -0.102837     -0.379950
Pb      11.48310      3.71713      8.66012        -0.247164      0.658118      0.283003
Pb      11.51279      0.10237      8.72486         0.150045     -0.450944     -0.305682
Pb      11.53433      3.79118     12.98264         0.060687      0.254862      0.116622
Pb      11.54026      0.01121     13.06724         0.047238     -0.576216     -0.135886
Pb      11.49298      7.59964      4.37125        -0.392113      0.527114     -0.400177
Pb      11.50930      7.74479     17.35837        -0.040283     -0.491001      0.556467
Pb      11.53387      7.70145      8.66027        -0.093091     -0.284843      0.132114
Pb      11.53081      7.59233     13.14132         0.099752      0.170380     -0.264889
Pb      11.49141     11.57077      4.23602        -0.022821     -0.575871      0.227853
Pb      11.48881     11.47755     17.40788        -0.317096      0.122459      0.034448
Pb      11.56351     11.50950      8.57981        -0.744923     -0.035251      0.861653
Pb      11.54935     11.53697     13.09572        -0.135144      0.108231      0.086770
Ti       1.91554      1.88635      2.35166         0.292679     -0.421991     -1.834731
Ti       1.93149      1.88985     15.40154        -0.131476     -0.400177     -1.595376
Ti       1.89039     13.39191      2.42627         0.363166     -0.835169     -1.288135
Ti       1.91157     13.36472     15.36585         0.078242      0.448438     -0.949880
Ti      13.38425      1.87370      2.37836         0.267068     -0.039137     -0.792956
Ti      13.46752      1.85351     15.39542        -0.023327      0.052216     -0.982072
Ti      13.44342     13.43077      2.34244         0.504572     -0.358396     -1.230175
Ti      13.37286     13.44717     15.50793         0.200182     -0.742627     -1.852873
Ti       1.89847      1.95460      6.80334        -0.285729     -0.179049     -1.264891
Ti       1.86486     13.48847      6.74970         0.467074     -0.775910     -1.841296
Ti      13.41791      1.93783      6.72076         0.535109     -0.591432     -1.697319
Ti      13.42880     13.41900      6.65896        -0.015268      0.077881     -0.362970
Ti       1.90532      1.81754     11.07541         0.003077      1.070468     -1.056988
Ti       1.91593     13.45956     11.04219        -0.721495     -0.856645     -0.426069
Ti      13.45959      1.89193     11.03254         0.381907      0.006209     -0.614980
Ti      13.39803     13.42427     10.94811        -0.210481     -0.005288     -0.505911
Ti       1.91387      5.75905      2.39745        -0.079568     -0.514409     -2.247421
Ti       1.95639      5.71613     15.34840        -0.305229     -0.032666     -0.220313
Ti      13.47170      5.75584      2.39237        -1.013618     -0.148067     -1.762220
Ti      13.44689      5.66792     15.48387        -0.840304      1.039425     -1.149649
Ti       1.90791      5.77410      6.73824        -0.717650      0.182895     -1.694614
Ti      13.42021      5.66401      6.67565         0.216908      1.248538     -0.364134
Ti       1.86618      5.73270     11.07047         0.339964      0.457774     -0.783070
Ti      13.35824      5.78350     10.97222         0.978203     -0.525611      0.580170
Ti       1.81073      9.53925      2.40009         1.492686      0.865832     -1.803639
Ti       1.86050      9.53675     15.35974         0.588812     -0.201326     -1.498080
Ti      13.36966      9.60777      2.31685        -0.845259      0.565137     -1.694899
Ti      13.41735      9.56455     15.50235        -0.105025      0.018219     -1.708019
Ti       1.83452      9.63190      6.64854         0.364865      0.280272     -0.498774
Ti      13.38356      9.54224      6.70473         0.205214     -0.003273     -1.308372
Ti       1.88442      9.56100     11.05754        -0.997369     -0.607175     -0.446517
Ti      13.32214      9.61088     11.02684         1.420692     -0.340653     -0.346224
Ti       5.75892      1.91529      2.22895         0.073488     -0.697199      0.487137
Ti       5.72954      1.84718     15.46801         0.298826      0.527955      0.126114
Ti       5.79387     13.40818      2.30490        -0.762300     -0.207104     -0.138296
Ti       5.77863     13.45529     15.45891        -0.073570     -0.868043     -2.594064
Ti       5.75313      1.88608      6.66067         0.782597      0.096927     -0.313555
Ti       5.74277     13.40679      6.75841         0.372676     -0.805594     -1.874808
Ti       5.78448      1.94910     11.01007        -0.189957      0.044346     -1.074000
Ti       5.63722     13.45001     11.05902         0.738133      0.128455     -1.109172
Ti       5.74653      5.83533      2.44276        -0.251239     -0.654121     -2.149006
Ti       5.73260      5.73634     15.35586         0.650062     -0.581873     -0.447470
Ti       5.68284      5.71708      6.70469         0.808097      0.483675     -0.895826
Ti       5.76689      5.77714     11.05162        -0.350011     -0.147244     -1.386016
Ti       5.62713      9.56397      2.35308         1.066447      0.527321     -0.742022
Ti       5.67344      9.62986     15.44579        -0.163475     -0.150452     -1.711781
Ti       5.69601      9.53628      6.69771         0.834611      0.432249     -1.269665
Ti       5.66371      9.55210     11.03540         0.684281      0.041647     -0.932376
Ti       9.59116      1.81468      2.32367        -0.192314     -0.073756     -0.845377
Ti       9.60678      1.89850     15.45210        -1.526016     -0.217007     -0.786049
Ti       9.58341     13.35782      2.35372         0.438381      0.200514     -1.211407
Ti       9.57395     13.42088     15.40544        -0.776267     -0.442258     -0.020866
Ti       9.57434      1.94851      6.56558        -0.684067     -0.172761      1.121796
Ti       9.60879     13.47725      6.73701        -0.630622     -0.569940     -1.200477
Ti       9.61783      1.87816     11.01463        -0.307352      0.129190     -1.498524
Ti       9.55133     13.42414     11.04806         0.323400     -0.717769     -1.115014
Ti       9.55671      5.69471      2.28900        -0.009216      0.864659      0.742115
Ti       9.54965      5.66686     15.52420        -0.581071     -0.078154     -1.906624
Ti       9.62423      5.78087      6.62486        -0.080662     -0.246572     -1.166974
Ti       9.54959      5.71106     11.08656         0.296684      0.801839     -1.327732
Ti       9.52057      9.57621      2.32987        -0.229744     -0.512876     -0.872008
Ti       9.52972      9.50302     15.40254        -0.152017      1.012607     -1.047655
Ti       9.53788      9.57982      6.78207        -0.597805      0.056489     -0.937199
Ti       9.59167      9.57462     11.11741        -0.582502      0.304853     -1.483838
O       1.93716      1.74522      0.47785        -0.198351      0.460964      1.930471
O       2.01160      1.90375     13.57594        -0.527878      0.005805      0.260986
O       1.93116     13.39964      0.51391        -0.083582     -0.169946      1.272358
O       1.94700     13.33930     13.57640        -0.228340      0.058889      0.479864
O      13.42169      1.88664      0.59203         0.034727      0.021865     -0.019010
O      13.50212      1.81212     13.55822        -0.422233      0.186391      1.388358
O      13.44874     13.36851      0.51310        -0.034828      0.035034      0.448964
O      13.24668     13.49050     13.61410         0.451750     -0.124148      1.851574
O       1.93571      1.99128      5.03200         0.086344     -0.105572     -0.390902
O       1.88400     13.48771      4.94697         0.017128      0.092733      0.550082
O      13.36211      1.84269      4.89218         0.002138      0.078742      0.770490
O      13.48932     13.40422      4.82810        -0.373153      0.010705      0.795208
O       1.80662      1.86272      9.19118         0.414229      0.105850      1.398818
O       1.84665     13.51233      9.26097        -0.099968     -0.085669      0.021050
O      13.40789      1.87350      9.22327         0.013447     -0.078192     -0.058884
O      13.40404     13.51637      9.09901         0.149926     -0.234248      1.485633
O       1.94223      5.69826      0.52978        -0.444058     -0.075411      1.457782
O       2.01216      5.61965     13.52934        -0.592083      0.120494      1.140782
O      13.39785      5.81891      0.53981         0.229035     -0.480729      1.277499
O      13.45100      5.62069     13.69188        -0.272133      0.072456     -0.014489
O       1.83422      5.74792      4.87887         0.304453     -0.040055      1.554473
O      13.52444      5.70580      4.89239        -0.504639      0.142863     -0.185309
O       1.89445      5.78824      9.25640        -0.158569     -0.175522      0.416051
O      13.38854      5.78999      9.24082        -0.151027      0.012118     -0.547264
O       1.81273      9.58824      0.58456         0.132211      0.037625      1.035375
O       1.92145      9.56788     13.46133        -0.260878      0.008378      2.559401
O      13.20483      9.58757      0.41021         0.660552     -0.105762      1.534923
O      13.35952      9.68520     13.66642         0.131842     -0.558185      1.032818
O       1.91500      9.53071      4.85050        -0.488977      0.102504      0.708764
O      13.42912      9.69305      4.88344         0.083281     -0.065584      0.597750
O       1.81141      9.45106      9.24293         0.272993      0.404835      0.394541
O      13.36657      9.44755      9.23114        -0.128357      0.323151      0.479073
O       5.59694      1.85991      0.46297         0.324015      0.173376      0.602445
O       5.74662      1.83290     13.68671        -0.029660      0.092597      0.117738
O       5.63875     13.35169      0.52791         0.421420     -0.030561      0.844818
O       5.75198     13.46883     13.58585        -0.180666      0.170561      0.562980
O       5.80921      1.87996      4.89828         0.008800      0.022929      0.242372
O       5.76527     13.29190      4.89282         0.212052      0.539355      1.075583
O       5.77771      1.97381      9.18849        -0.023449     -0.313313      0.688745
O       5.71460     13.43592      9.20049        -0.062171      0.167871      1.264380
O       5.65358      5.84400      0.59960         0.212379     -0.220758      1.596076
O       5.76140      5.61348     13.57056        -0.160023      0.199326      0.302688
O       5.66791      5.71432      4.85889         0.019632     -0.049801      1.076021
O       5.78339      5.66154      9.17965        -0.005971      0.332705      1.449339
O       5.69213      9.54185      0.53574         0.092468     -0.062447      0.555719
O       5.70048      9.55691     13.61790        -0.165664      0.358651      0.719056
O       5.67175      9.70434      4.85165         0.254498     -0.650121      1.254692
O       5.62627      9.56745      9.21818        -0.028568      0.012011      1.291956
O       9.43484      1.76853      0.49351         1.037423      0.182670      0.924441
O       9.44262      1.91636     13.66103         0.617537      0.142048     -0.044146
O       9.49734     13.34103      0.55611         0.372893      0.262165      0.297429
O       9.64072     13.32871     13.64673        -0.013166      0.554129     -0.313228
O       9.60791      1.81618      4.83310         0.119693      0.282657     -0.637665
O       9.51316     13.37808      4.89853         0.708159      0.048154      0.896566
O       9.53222      1.98105      9.15903         0.460604     -0.474151      1.427680
O       9.53613     13.36768      9.20339         0.156460      0.653028      1.484838
O       9.43808      5.72628      0.54958         0.378349     -0.228865     -0.558358
O       9.46894      5.68944     13.65806         0.735369     -0.306407      0.864601
O       9.68252      5.85930      4.74792        -0.235180     -0.341104      1.765646
O       9.59807      5.74524      9.28704        -0.179813     -0.040799      0.454680
O       9.41363      9.58233      0.51057         0.571728     -0.055691      0.212852
O       9.45572      9.63912     13.57412         0.428361     -0.502708      1.188517
O       9.42906      9.38340      4.97728         0.528094      0.733600      0.965515
O       9.59156      9.63534      9.30536         0.131738     -0.557989      0.439216
O       3.86004      1.87390      2.79412        -0.063384     -0.192736     -0.368697
O       3.71860      1.88412     15.74223         1.927262     -0.238223      0.465305
O       3.87707     13.51404      2.74515         0.152778     -0.254931     -0.095057
O       3.90185     13.35464     15.71798        -2.160398     -0.018893      0.508702
O       0.02982      1.92407      2.72160         0.069247     -0.235145      0.058276
O       0.02387      1.78766     15.73330        -1.549340      0.353046      0.273728
O       0.02603     13.48263      2.74314        -0.064015     -0.531768     -0.005082
O      15.35401     13.36519     15.75688        -0.190343      0.018851      0.018976
O       3.85675      1.93740      7.07204        -0.119702     -0.231481      0.104351
O       3.83528     13.46511      7.02998        -0.500050     -0.048477      0.300979
O       0.01305      1.98565      6.98678        -1.174340      0.045860      0.486824
O      15.29639     13.41105      7.01574         0.127267      0.314641      0.486715
O       3.84620      1.96018     11.47335        -0.793519      0.215211     -0.539944
O       3.77207     13.47243     11.36118         0.289848     -0.195763      0.239180
O       0.02218      1.83692     11.49118        -0.212919     -0.020263     -0.129400
O      15.34142     13.40669     11.45312        -0.375356      0.081605     -0.155744
O       3.75826      5.87477      2.73294         0.980293     -0.551628      0.284241
O       3.76738      5.60489     15.79721        -0.015751      0.540873     -0.270067
O      15.29376      5.70439      2.72427         0.452917      0.078933     -0.004156
O      15.27920      5.77457     15.85868         1.249077     -0.505028     -0.121683
O       3.80487      5.79354      7.23434        -0.066983     -0.473698     -0.972424
O      15.28963      5.77167      7.13838         0.800050     -0.422838     -0.115788
O       3.89354      5.81280     11.46351        -0.703931     -0.888658     -0.447863
O      15.29711      5.75780     11.43901        -0.315671     -0.265531      0.048152
O       3.80962      9.46220      2.75571        -0.461040     -0.087264     -0.056522
O       3.78919      9.58616     15.82409        -0.520642     -0.228480     -0.214705
O       0.00814      9.73045      2.70769        -1.394324     -0.490197      0.193498
O       0.00452      9.48457     15.84330        -0.496711      0.073358     -0.244279
O       3.78750      9.67407      6.98162        -0.743890     -0.269395      0.389336
O      15.28774      9.53522      7.02754         0.717072      0.454100      0.050295
O       3.76765      9.47241     11.44227         0.632524      0.371010     -0.261914
O      15.32927      9.54001     11.45336        -0.801686     -0.000329      0.082875
O       7.75148      1.96151      2.55167        -1.311499     -0.008784      0.573525
O       7.60293      1.78116     15.83972        -0.308619      0.556432      0.135634
O       7.77107     13.25108      2.73132        -1.996215      0.479046     -0.021404
O       7.59936     13.43303     15.75316         1.839940     -0.102349      0.416806
O       7.70553      1.87772      7.10223        -0.692258      0.132556     -0.266713
O       7.68651     13.38711      7.02912        -0.209417      0.013922      0.369901
O       7.70610      1.76280     11.34863        -0.306098      0.277094      0.085364
O       7.59225     13.54296     11.49884         0.535591     -0.267355     -0.757008
O       7.66577      5.55775      2.71649        -0.350863      0.783903     -0.031557
O       7.60141      5.76007     15.72325         0.332985     -0.481929      0.582783
O       7.69413      5.84672      7.06380        -0.764420     -0.283123     -0.342855
O       7.67848      5.85503     11.41799        -0.367465     -0.503432      0.026648
O       7.68701      9.72514      2.69865        -0.959258     -0.397406      0.214242
O       7.59596      9.42429     15.76944         0.637308      0.703401      0.061918
O       7.58071      9.59525      7.16052         0.864341     -0.358678     -0.182025
O       7.63043      9.51400     11.52349        -0.704138      0.487562     -0.608725
O      11.53632      1.82515      2.62665        -0.298542     -0.019053      0.448173
O      11.44297      1.83411     15.72359         1.798550      0.289820      0.299285
O      11.57789     13.38300      2.64611        -0.560214      0.187845      0.505725
O      11.44522     13.41119     15.88379         0.926762      0.084953      0.043644
O      11.44845      1.97077      7.07679         0.054828     -0.358430     -0.055813
O      11.56800     13.47445      7.02459        -1.046746     -0.339291     -0.047379
O      11.54233      1.91017     11.32805        -0.288530      0.135956      0.432395
O      11.51872     13.35405     11.45119        -0.423297      0.178730     -0.392492
O      11.49289      5.86814      2.62863         0.361261     -0.215128      0.430939
O      11.52269      5.49175     15.78631        -1.112194      0.699121      0.172110
O      11.50382      5.71792      7.06577        -0.435315      0.085173     -0.119180
O      11.49695      5.68126     11.42548        -0.118638      0.107679      0.481383
O      11.46167      9.50788      2.72925         0.570617      0.246183      0.034854
O      11.39566      9.47465     15.73795         0.389645      0.647769      0.148645
O      11.49524      9.57810      7.03173        -0.440494      0.060568      0.249518
O      11.50392      9.60835     11.49150        -0.164623     -0.151388      0.090860
O       1.97305      3.80124      2.69407        -0.156695     -0.394951      0.130467
O       1.80948      3.74175     15.74046        -0.195164      1.347863      0.330811
O       1.96742     15.29547      2.80594        -0.392693      1.167892     -0.066804
O       1.91544     15.29730     15.75036        -0.060641     -0.721749      0.003564
O      13.39380      3.83325      2.78937        -0.151488      0.156404     -0.388131
O      13.40921      3.78232     15.85819         0.492036     -1.509652      0.033420
O      13.47275     15.28664      2.66412        -0.110860      0.969566      0.462739
O      13.47765     15.30043     15.82637        -0.521570      0.752867      0.018082
O       1.91130      3.90519      7.17901         0.148299     -0.321098     -0.076613
O       1.81886     15.35989      7.08012         0.354979      0.445150      0.227088
O      13.31571      3.82487      6.99652         0.430500     -0.483374      0.482943
O      13.37433      0.01634      7.05414         0.180863      0.049417     -0.053820
O       1.80551      3.84038     11.35975         0.394729     -0.859243      0.120950
O       1.84680     15.30835     11.46031         0.360560      0.654014     -0.031781
O      13.45773      3.74858     11.29399        -0.054629      0.968426      0.576853
O      13.41261     15.28787     11.33072        -0.013242      0.413532      0.377470
O       1.77215      7.59722      2.66011        -0.140095      1.069306      0.466205
O       1.89958      7.57094     15.87901        -0.033180      0.471962     -0.831484
O      13.47761      7.82951      2.76241         0.300928     -2.038191     -0.060832
O      13.28646      7.60805     15.76535         0.208330      0.188466      0.093654
O       1.86576      7.71279      7.09119         0.200259     -0.357256     -0.404754
O      13.40594      7.65934      6.91937        -0.349172     -0.210972      0.463378
O       1.80645      7.58028     11.49258         0.382863      0.474533     -0.025092
O      13.38689      7.66820     11.51004        -0.362855     -0.269361     -0.044787
O       1.99052     11.49122      2.79747        -0.084467      0.510224     -0.266875
O       1.89921     11.43171     15.72270        -0.160849      0.304324      0.202211
O      13.41895     11.48434      2.68016         0.088961      0.112992      0.328103
O      13.42131     11.44760     15.77046        -0.291892      0.725330      0.423691
O       1.80858     11.56631      7.11116         0.131151     -0.780740     -0.028647
O      13.44003     11.47205      7.19159         0.106361      0.534893     -0.733272
O       1.87550     11.41275     11.38339         0.282177      1.448888     -0.004041
O      13.46222     11.51662     11.29755        -0.097071     -0.203089      0.139042
O       5.76118      3.79252      2.68590        -0.488373      0.021083      0.081619
O       5.61460      3.84427     15.86658         0.658719     -0.994899     -0.021715
O       5.92920     15.33129      2.73446        -0.360236     -0.109710     -0.324986
O       5.76987     15.25107     15.89537        -0.777856      1.857027     -0.103275
O       5.72917      3.80190      6.95193         0.089228      0.561819      0.372191
O       5.81910     15.29063      7.02726        -0.278397      0.940408      0.210762
O       5.81399      3.82993     11.38303        -0.014897      0.080490      0.090278
O       5.57488      0.11013     11.45100         0.869733     -1.349730     -0.382952
O       5.80038      7.67591      2.81252         0.202716     -0.112936     -0.085141
O       5.72264      7.61797     15.75314        -0.717647      0.091368      0.126714
O       5.65879      7.68228      7.04008         0.006921     -0.695462     -0.180851
O       5.66786      7.66921     11.53843         0.856849      0.001507     -0.802610
O       5.66063     11.44786      2.77532         0.139423      0.835852     -0.536687
O       5.76063     11.49399     15.70664         0.119584     -0.582771      0.499478
O       5.72158     11.46743      7.08439        -0.144168      0.693982      0.348558
O       5.61131     11.51987     11.36123         0.351202     -0.022857      0.065331
O       9.67293      3.77161      2.70330         0.210194      0.377604     -0.059994
O       9.44185      3.74762     15.94516         0.315252      0.436489      0.016688
O       9.61879     15.25873      2.70601        -0.046864      0.554282      0.208555
O       9.57254     15.34554     15.83177         0.003983     -0.647069      0.073868
O       9.42616      3.90117      6.93338         0.781134     -0.521164     -0.094884
O       9.50800     15.34618      6.90738         0.588322      0.245874      0.602507
O       9.52913      3.80438     11.33317         0.147633     -0.245032      0.543752
O       9.73709      0.00913     11.40234        -0.467825     -0.748390     -0.092158
O       9.40052      7.69915      2.75711         0.550249     -0.903163     -0.426492
O       9.58435      7.56361     15.76930         0.100676      0.483924      0.058185
O       9.60179      7.63089      7.13094         0.058940      0.472821      0.130972
O       9.53755      7.69167     11.40187         0.747677     -0.839358      0.529344
O       9.66959     11.46427      2.68632         0.363120      0.123758      0.439415
O       9.51292     11.51271     15.78059         0.033942     -0.938566      0.182065
O       9.54444     11.46922      7.21951         0.497447      0.250954     -0.828680
O       9.51255     11.47810     11.39800        -0.088759      1.204754      0.290367
