  # total energy = -7864.00985847 
CRSYTAL
PRIMVEC
    15.010000000000000    0.0000000000000000    0.0000000000000000
     0.0000000000000000   15.010000000000000    0.0000000000000000
     0.0000000000000000    0.0000000000000000    16.400000000000000
PRESSURE
15.9708 15.8529 6.57636 -0.102799 -0.007969 0.064593
PRIMCOORD
320 1
Pb       3.78478      3.64476      4.20187        -0.036214      0.944856     -0.297004
Pb       3.62970      3.75200     16.36771         0.530316     -0.377763      0.751052
Pb       3.75250     14.96722      4.16183        -0.608220      0.255302      0.042861
Pb       3.86218     14.96092      0.07518        -0.454336     -0.231999     -0.525702
Pb      14.92027      3.83478      4.16294         0.673208     -1.044329      0.130743
Pb      14.88920      3.61718      0.08232        -0.008565      0.157244     -0.388324
Pb      14.89225      0.03879      4.29889         0.324705     -0.444368     -0.450813
Pb       0.04185     14.95153      0.16254        -0.758568     -0.231395     -0.472965
Pb       3.46652      3.75545      8.27533         1.112644     -0.402403     -0.252565
Pb       3.69382      0.14769      8.21063        -0.386699     -0.452838     -0.123697
Pb      14.80169      3.78747      8.34033         0.315100     -0.059616     -0.674615
Pb      14.82181     14.99576      8.19843         1.143893     -0.004985      0.016829
Pb       3.70483      3.67563     12.38281        -0.209142      0.189119     -0.412885
Pb       3.62524     14.95831     12.36193         0.425303      0.083982     -0.259969
Pb      14.90985      3.79497     12.39666        -0.045010      0.082487      0.129978
Pb      14.98793     14.97253     12.32941        -0.122274      0.071693      0.100576
Pb       3.87155      7.50226      4.17942         0.196641     -0.129204      0.747950
Pb       3.78175      7.55145      0.07464        -0.573166     -0.147541     -0.300962
Pb       0.15198      7.52033      4.19429        -0.528690      0.671052     -0.088802
Pb      15.00317      7.45078      0.05589         0.167033     -0.120758      0.325422
Pb       3.73127      7.52547      8.27039         0.086500     -0.072620     -0.003948
Pb       0.05663      7.54758      8.36621        -0.211883     -0.141577     -0.898798
Pb       3.61749      7.43527     12.31430         0.308258      0.287042     -0.312596
Pb      14.88246      7.46029     12.29954         0.374107     -0.009218      0.070535
Pb       3.87248     11.06169      4.29283         0.051807      0.071582     -0.261374
Pb       3.77293     11.16728      0.09490         0.080387      0.244946     -0.399216
Pb       0.16836     11.11338      4.15441        -0.581362      0.532258      0.235857
Pb       0.08788     11.31088      0.15155        -0.765451     -0.173578     -0.267851
Pb       3.75203     11.28176      8.25551         0.273832     -0.035939     -0.311614
Pb       0.10739     11.27601      8.19575        -0.734197      0.044953      0.192311
Pb       3.73397     11.21909     12.26466        -0.019692     -0.207488      0.868687
Pb       0.02085     11.28071     12.30452        -0.192920     -0.359645      0.054021
Pb       7.41806      3.87667      4.01820         0.166187     -0.549575      0.820332
Pb       7.46033      3.69131      0.03914        -0.090114      0.187239      0.005138
Pb       7.51553     14.88826      4.12579         0.439152      0.231346      0.127428
Pb       7.45393     14.89583      0.03618         0.133829     -0.142218     -0.646471
Pb       7.38166      3.73898      8.26714         0.266112     -0.392699     -0.920296
Pb       7.43065      0.19077      8.24102        -0.154142     -0.293301     -0.553682
Pb       7.28883      3.81231     12.40092         0.853478     -0.256525     -0.363473
Pb       7.43246     14.95530     12.26122         0.020783      0.281841      0.781740
Pb       7.62406      7.45976      4.10769        -0.572212     -0.138321      0.297943
Pb       7.51841      7.42240     16.32516         0.437127      0.335274     -0.001620
Pb       7.57512      7.37900      8.32709        -0.549743      0.194558     -0.578429
Pb       7.44217      7.62213     12.29826         0.518872     -0.567974     -0.111680
Pb       7.65891     11.08033      4.20175        -0.561823      0.820307      0.071034
Pb       7.46382     11.26358     16.39257         0.499861     -0.174100      0.063076
Pb       7.64574     11.30574      8.16398        -0.499950      0.347309     -0.584012
Pb       7.48054     11.36157     12.14509         0.147587     -0.803464      1.003291
Pb      11.12741      3.83421      4.16320        -0.037562     -0.616071      0.013529
Pb      11.26282      3.76557      0.07550         0.324885     -0.319359     -0.173811
Pb      11.27977     14.91477      4.09439        -0.416631      0.443552      0.010443
Pb      11.28338     14.97087      0.06667         0.841412     -0.470486     -0.069815
Pb      11.20275      3.69974      8.37111        -0.578605      0.260069     -0.940184
Pb      11.18133      0.03591      8.25329        -0.072263      0.275126     -0.124160
Pb      11.10544      3.73030     12.33210         0.821029      0.113441      0.724145
Pb      11.19200     14.98118     12.45108         0.218895      0.318936     -0.231333
Pb      11.42521      7.48924      4.18579        -0.215536      0.038668     -0.012637
Pb      11.23682      7.42783      0.07839        -0.003382     -0.245210     -0.468462
Pb      11.25126      7.45051      8.29395         0.466693     -0.103312     -0.723884
Pb      11.13310      7.43483     12.31335         0.013456      0.394315     -0.016429
Pb      11.33501     11.10269      4.11062         0.000876      0.667929      0.835010
Pb      11.27848     11.16271      0.02025        -0.006909      0.938829     -0.800323
Pb      11.33727     11.37473      8.30694        -0.021422     -0.537642     -0.479540
Pb      11.15628     11.24803     12.30970         0.618078     -0.253026      0.202947
Ti       1.87060      1.77888      2.08053         0.025827      0.337410      0.195682
Ti       1.83805      1.80945     14.37858        -0.671819     -0.033039      0.224531
Ti       1.98978     13.07221      2.09553        -1.473428      0.843461      0.558196
Ti       1.88533     13.08589     14.36092         0.122652     -0.417903      0.247204
Ti      13.16072      1.79053      2.20546        -1.474700      0.041054     -1.045214
Ti      13.10344      1.80672     14.33439         0.065331     -0.139026      1.180410
Ti      13.16274     12.99221      2.26479         0.964753      1.287487     -1.702566
Ti      13.23165     13.11664     14.33216        -1.176708     -0.284093      0.617939
Ti       1.80039      1.88867      6.14456        -0.896139     -0.413399     -0.254625
Ti       1.83139     13.09633      6.09698        -0.151325      1.391349     -0.370464
Ti      13.03591      1.90520      6.29257        -0.148617      0.434357     -0.980825
Ti      13.06051     13.13163      6.26095         0.677230     -0.711981     -0.895625
Ti       1.73091      1.92478     10.39805         0.517069     -0.806719     -1.000240
Ti       1.86316     13.12675     10.22449        -0.354591      0.477586     -0.121697
Ti      13.05898      1.87126     10.28944        -0.630019     -0.075766     -0.024235
Ti      13.10628     13.18227     10.37287         0.826035     -1.574380     -0.275152
Ti       1.93887      5.57563      2.12311         0.624178     -0.110306     -0.433658
Ti       1.88040      5.59402     14.36310        -0.706289      0.897153     -0.402430
Ti      13.20561      5.55801      2.26277        -0.628231      0.077247     -2.016009
Ti      13.10937      5.61900     14.46442        -0.352808     -0.402593     -0.437125
Ti       1.87853      5.62352      6.12790        -0.049489      0.643016      0.626088
Ti      13.16180      5.60265      6.14868        -0.690788      1.359181      1.318254
Ti       1.79791      5.62392     10.21776         0.705363      0.161290      0.411027
Ti      13.07270      5.62898     10.30889        -0.639843     -0.435494      0.138034
Ti       1.95559      9.32189      2.17898        -0.695597      0.057721     -0.700990
Ti       1.76197      9.36610     14.40726         1.466736     -0.508326     -0.509246
Ti      13.14599      9.34756      1.98833         0.760070     -0.942500      0.482503
Ti      13.13328      9.37140     14.26480        -0.535072      0.710425      0.180751
Ti       1.88325      9.40325      6.30937         0.625385     -2.094129     -0.620289
Ti      13.16360      9.38767      6.25949        -0.190934     -0.576362     -0.661893
Ti       1.90561      9.37482     10.37125         0.444255     -0.117061     -0.136349
Ti      13.13772      9.37569     10.25947         0.047505      1.036562      0.912106
Ti       5.62190      1.81589      2.05582         0.243070      1.730944     -0.530394
Ti       5.60847      1.82952     14.39228         0.761648     -0.687390      0.171225
Ti       5.64429     13.11396      2.15606        -0.262455     -0.722356     -0.770461
Ti       5.59335     13.01814     14.33286         0.385642      1.526059     -0.115197
Ti       5.52852      1.87261      6.06085         0.926161      0.751486      1.245584
Ti       5.55905     13.14660      6.06672         0.802637     -0.470530      1.772444
Ti       5.50466      1.84067     10.34022         0.383212      0.965706     -0.789706
Ti       5.57070     13.15221     10.20087         0.339791     -0.324235     -0.411084
Ti       5.63913      5.69241      2.11183        -0.453571     -1.915605     -0.287599
Ti       5.55181      5.63959     14.36576         1.234391     -0.498970     -0.390903
Ti       5.62507      5.63941      6.30075         0.452955     -0.695023     -0.938611
Ti       5.59475      5.56539     10.25286        -0.763497      1.098377     -0.133390
Ti       5.68534      9.36024      2.04035         0.594528      1.072846      0.424349
Ti       5.59108      9.35160     14.32108        -0.062432      0.603613     -0.108350
Ti       5.70217      9.39921      6.32986        -0.004780     -0.903644     -0.827173
Ti       5.73214      9.39968     10.24408        -1.695497     -1.257302     -0.540353
Ti       9.43159      1.79711      1.97754        -0.542887      0.674548      1.186479
Ti       9.36041      1.79736     14.40120         0.006768      0.899590     -0.476742
Ti       9.38412     13.05516      2.07781        -0.355423      0.107976     -0.304869
Ti       9.42758     13.15532     14.29936        -0.596210     -1.418515      0.785828
Ti       9.32573      1.90235      6.06613        -0.659587      2.021249      0.890259
Ti       9.36045     13.19642      6.19800        -0.881483     -0.441787     -0.881841
Ti       9.29858      1.90398     10.32114        -0.772677     -0.389602     -0.322263
Ti       9.40718     13.15907     10.25103        -0.952893      0.494898     -0.399120
Ti       9.43283      5.60470      2.05438         0.061425      0.191381      0.191727
Ti       9.34143      5.59468     14.29634        -0.271165      0.468092     -0.060636
Ti       9.39417      5.66031      6.23810        -0.766065     -1.739295     -0.438644
Ti       9.32463      5.57106     10.25634        -0.519631     -0.018207      0.250493
Ti       9.47906      9.37045      2.09839        -1.318835     -0.704507     -0.772715
Ti       9.38644      9.44547     14.34058        -0.006252     -1.093765     -0.434212
Ti       9.49402      9.37637      6.11048        -0.272811      0.127236      1.634624
Ti       9.45740      9.36841     10.11367         0.244138     -0.347460      0.890998
O       1.80764      1.78926      0.16771         0.207793      0.519976      0.839190
O       1.83577      1.91448     12.46697        -0.327839     -0.568955      0.901492
O       1.97187     13.16521      0.22329        -0.782230     -0.715839      0.181210
O       1.96464     13.06176     12.49713        -0.193081      0.226502      0.242545
O      13.10446      1.84056      0.24126         0.380298      0.010525      0.687359
O      13.17833      1.79970     12.53532        -0.451398     -0.059019     -1.191715
O      13.23865     13.17388      0.23651        -0.197479     -0.725843      0.826559
O      13.16739     13.08836     12.44546        -0.018676      0.386754     -0.067862
O       1.99919      1.93450      4.28001        -0.739852     -0.774472      0.012946
O       1.84326     13.12142      4.22093         0.439882      0.324777      0.945149
O      13.02833      1.82637      4.35390         0.191309      0.275336      0.436582
O      13.14316     13.15623      4.32572        -0.518171     -0.353875     -0.190829
O       1.96293      1.85519      8.53365        -0.850593      0.524599     -0.198187
O       1.66485     13.06212      8.41087         0.442860      0.013955     -0.326166
O      13.13912      1.89280      8.36947        -0.382046     -0.356173      0.549996
O      13.16899     13.19778      8.45493        -0.321402     -0.220836     -0.188989
O       1.94862      5.64196      0.26233         0.367887     -0.158214     -0.372332
O       1.71326      5.62130     12.48139         0.662099      0.305951      0.704776
O      12.98620      5.53905      0.21467         0.881125      0.386309     -0.575002
O      13.07679      5.52465     12.38534        -0.072512      0.392323      1.452368
O       1.80580      5.72851      4.27959        -0.243752     -0.313944     -0.109052
O      13.26462      5.61008      4.27327        -0.316761     -0.043295     -0.318697
O       1.88525      5.72612      8.38153        -0.425748     -0.887802     -0.030661
O      12.94453      5.55624      8.45990         0.816877      0.122884     -0.197403
O       1.90694      9.38372      0.26076        -0.265593     -0.114249      0.268043
O       1.85958      9.19496     12.51844        -0.090270      0.727420     -0.238349
O      13.17158      9.25020      0.17067        -0.259534      0.448458     -0.042740
O      13.07398      9.38536     12.43441         0.596661     -0.026189      0.141168
O       1.90976      9.29494      4.31213         0.079512      0.161957      0.367595
O      13.12222      9.38515      4.37681        -0.109550     -0.023895      0.012310
O       1.83753      9.44090      8.50198         0.145602     -0.095148     -1.029936
O      13.15524      9.33689      8.48900        -0.119939      0.202819     -1.625437
O       5.59352      1.87504      0.10250         0.121711     -0.082303      0.916914
O       5.58974      1.90900     12.51041         0.143299     -0.350695      0.031067
O       5.66316     13.06659      0.28094        -0.116776      0.415980     -0.483292
O       5.57040     13.11761     12.46949        -0.084197     -0.314926      0.043947
O       5.46640      1.83742      4.20093         0.187555     -0.199732      0.182669
O       5.57149     12.98190      4.25463        -0.413036      0.738511     -0.069446
O       5.32348      1.84029      8.46125         0.940649      0.023529      0.535766
O       5.78723     13.16955      8.42696        -0.539800     -0.337383     -0.162292
O       5.57388      5.54047      0.22091         0.172427      0.429445     -0.210731
O       5.58253      5.55469     12.47809        -0.102494      0.421548      0.481876
O       5.76588      5.68089      4.32597        -0.392129     -0.105007     -0.104301
O       5.71156      5.64164      8.38137        -0.916502      0.008500      0.398397
O       5.63400      9.34339      0.19082        -0.032330     -0.114266      0.124157
O       5.58262      9.34369     12.44481         0.451891      0.095545      0.537131
O       5.56675      9.41166      4.33779         0.103859      0.006550      0.251894
O       5.54958      9.35459      8.37676         0.707025      0.314436      0.427239
O       9.51988      1.77572      0.17058        -0.839482      0.109164     -0.093336
O       9.35467      1.74414     12.52594         0.160038      0.098665     -0.095671
O       9.42339     12.94817      0.17969        -0.296689      0.596225      1.058152
O       9.39412     13.18132     12.41566        -0.222623     -0.215425      0.095820
O       9.46257      1.98872      4.29935        -0.214898     -0.085738     -1.274529
O       9.36715     13.15105      4.34246        -0.046557     -0.031621     -0.065282
O       9.19682      2.03728      8.50537         0.482334     -1.157633     -0.007931
O       9.33188     13.13793      8.33831         0.023680      0.393390      0.979665
O       9.42324      5.70123      0.20695        -0.317648     -0.453383     -0.160624
O       9.29739      5.55587     12.43808         0.445822      0.308835      0.484295
O       9.33109      5.66132      4.28434         0.146371     -0.395814      0.401829
O       9.26645      5.51524      8.37448         0.255949      0.588865      0.753495
O       9.46487      9.47568      0.25353         0.072891     -0.405712      0.063565
O       9.45089      9.39121     12.48524        -0.603117     -0.019521     -0.258591
O       9.50707      9.39318      4.29844        -0.073869     -0.543416     -0.863179
O       9.45459      9.35616      8.31709        -0.180596      0.137308      0.251327
O       3.70856      1.36038      2.16252        -0.132193      0.550754      0.236683
O       3.72532      2.07916     14.42224        -0.093982      0.194085      0.605563
O       3.74203     13.65306      2.19189         0.087430     -0.739075      0.531239
O       3.72998     12.73199     14.58893         0.081224      0.168273     -0.002955
O      14.91153      2.19088      2.41156         1.956481      0.121334     -0.364970
O      14.99861      1.53125     14.59603         0.220615      0.228389     -0.224714
O       0.03372     12.61135      2.32340        -1.038317      0.710751     -0.409703
O       0.00675     13.49884     14.46547         0.864652     -0.446229      0.208734
O       3.56783      1.75655      6.39633         2.086186     -0.430616      0.015710
O       3.68227     13.17961      6.46011        -0.052421     -0.013576     -0.264808
O      14.93126      2.13710      6.50568         0.375740     -0.506904     -0.597043
O      14.92626     12.99919      6.24456         0.672846     -0.219440      0.624901
O       3.65279      1.61828     10.52515         0.196065     -0.274071      0.657491
O       3.71966     13.45108     10.24809         0.234850      0.027530      0.698333
O      14.84725      2.27574     10.49304         1.828649     -0.589556     -0.107212
O       0.03291     12.79511     10.54336        -1.056769      0.047911     -0.201992
O       3.79018      5.98277      2.40822        -0.247396     -0.136813     -0.429286
O       3.77953      5.19159     14.51651        -1.333834      0.366136      0.002909
O       0.09170      5.26114      2.15473        -1.092924     -0.260917      0.540244
O       0.01285      5.87048     14.58095        -1.154855      0.481752      0.111384
O       3.71453      5.81690      6.26225         0.067489     -0.124615      0.373459
O      14.95364      5.45263      6.49768         0.730101      0.158587     -0.266897
O       3.66672      5.99194     10.39074         0.715651     -0.509039      0.102426
O      14.91540      5.26673     10.47091         0.297565      0.509067     -0.434328
O       3.79232      9.04574      2.23704        -0.120060      0.139082      0.211045
O       3.74361      9.74587     14.58495         0.304176     -0.514408     -0.049342
O      14.93617      9.61585      2.39142         0.974847     -0.060139     -0.647784
O      14.97988      8.96764     14.59855        -0.273734      0.084666     -0.282969
O       3.77763      9.34250      6.47598        -0.820719     -0.367095     -0.268458
O       0.01375      9.41666      6.40344        -0.128052      0.306409      0.326860
O       3.76788      8.98791     10.42896         0.071518      0.274441      0.228817
O       0.03682      9.57978     10.46875        -0.940624      0.374604      0.342910
O       7.48453      2.28057      2.20506         0.251824     -0.861344     -0.187138
O       7.55314      1.38686     14.59808        -1.092986      0.877528     -0.011028
O       7.41673     12.78323      2.37376         2.074596      0.369639     -0.049030
O       7.50840     13.42798     14.52192         0.048647     -0.613657      0.036198
O       7.36903      1.96391      6.44145        -0.323351     -0.025928     -0.342506
O       7.45615     12.97229      6.32208         0.014964      0.083609      0.064103
O       7.39279      2.36348     10.41961        -0.353721     -1.205453      0.349171
O       7.48716     12.83088     10.45525         0.262861      0.043845     -0.131121
O       7.54267      5.35409      2.30752        -0.265506      0.008253     -0.692417
O       7.46082      5.95920     14.43075        -0.373337     -0.313508      0.658411
O       7.45398      5.39275      6.43832         0.903136      0.277753     -0.291182
O       7.46098      5.37683     10.41705        -0.305090     -0.524859      0.322719
O       7.53060      9.67365      2.36502         0.109614     -0.484802     -0.455140
O       7.52837      9.13088     14.62635        -1.351694     -0.264280     -0.228648
O       7.53939      9.51897      6.26813         0.270908      0.189009      0.437037
O       7.57513      9.59132     10.34986        -0.393953      0.731675      0.474504
O      11.26815      1.50420      2.20091        -0.510595     -0.360298      0.498780
O      11.24757      2.08914     14.52944        -0.108536     -0.077654      0.011530
O      11.18230     13.33151      2.28920         1.058809      0.284515      0.104229
O      11.28903     12.79916     14.47098        -0.531499      0.035069      0.164143
O      11.16050      1.75099      6.47626         0.914364     -0.376158      0.269594
O      11.18535     13.20882      6.47022         0.938889      0.712722      0.009442
O      11.20639      1.49120     10.28007        -0.526477      0.029247      0.787514
O      11.23969     13.49755     10.46878        -0.473169     -0.029537     -0.317509
O      11.30557      5.87150      2.25476        -0.386576      0.270756      0.538389
O      11.17957      5.37555     14.56883         0.978323     -0.002557     -0.286072
O      11.20959      5.70055      6.38376         0.647638      0.392059     -0.160232
O      11.14197      5.82598     10.35551         1.036972      0.250983      0.563340
O      11.29830      9.01503      2.32625        -0.130153     -0.004546     -0.051370
O      11.27164      9.75049     14.36040         0.350038     -0.326005      1.215467
O      11.30134      9.14173      6.38518        -0.478108      0.268231      0.192230
O      11.27758      9.13438     10.41091        -0.825305     -0.618917      0.191603
O       2.32380      3.68817      2.32758        -0.854831      0.213800     -0.645161
O       1.44705      3.79275     14.55017         1.045415     -1.450313      0.319436
O       1.27069     14.98179      2.25872         1.351233      0.062732      0.258682
O       2.12324     14.90884     14.62096         0.363561      1.348237     -0.714531
O      12.74305      3.70897      2.33771         0.684606      0.007154      0.060752
O      13.33318      3.70366     14.56097         0.254436      0.718078      0.062552
O      13.41108     14.89636      2.31457        -0.092200      0.622571      0.296506
O      12.79321     14.93936     14.56273        -0.041911      0.744378     -0.161319
O       2.04176      3.78332      6.27814        -0.489901     -0.259105      0.455457
O       1.59799     14.96727      6.39431         0.295983      0.560524     -0.200339
O      12.92617      3.81233      6.45919        -0.064004     -1.376278     -0.244688
O      13.23323     14.99551      6.36157        -0.219693      0.668393      0.408738
O       2.09077      3.77679     10.52719         0.041066     -0.237926     -0.309668
O       1.50258     14.98331     10.49357         0.272529      0.486053      0.134451
O      12.71730      3.66936     10.43238        -0.129094      0.826375      0.252538
O      13.40541     14.99001     10.41385         0.319457      0.514115      0.411627
O       1.54861      7.50879      2.24128         0.150795     -0.394367      0.120425
O       2.23231      7.53839     14.52353        -0.070998     -1.558589      0.769792
O      13.41183      7.40785      2.23634         0.148736      0.737509      0.322441
O      12.78719      7.51795     14.38203         0.158253     -1.020639      0.521184
O       1.71649      7.52538      6.48075         0.041178     -0.384704     -0.214208
O      13.18469      7.48765      6.35525         0.309269     -0.582659      0.380769
O       1.59409      7.46517     10.34433        -0.775500      0.615555      0.749550
O      13.31180      7.48938     10.37492         0.225084     -0.418024      0.543019
O       2.14255     11.24447      2.37881         0.523572     -0.484362     -0.319322
O       1.45157     11.17054     14.57362         0.306311      1.509912     -0.015369
O      12.70361     11.18073      2.22372         0.451721     -0.170048     -0.167058
O      13.50031     11.29077     14.50369         0.026582     -1.394786      0.405262
O       1.91729     11.21411      6.36244        -0.060044      1.151661      0.261050
O      13.03346     11.24770      6.48462        -0.384944      0.158221      0.174103
O       2.24134     11.24537     10.49551        -0.608098     -0.055380     -0.072117
O      12.68302     11.26475     10.46395         1.092799      0.234883     -0.360316
O       5.28157      3.75207      2.27772         0.234777     -0.342700     -0.026516
O       6.00583      3.68956     14.57043        -0.551898      0.175522     -0.154683
O       6.02332      0.02113      2.17527        -0.305749     -0.377688      0.442077
O       5.36066     14.90291     14.60430        -0.122407      0.834741     -0.298777
O       5.40448      3.68240      6.43926        -0.428030      0.303581     -0.293775
O       5.58821     14.99350      6.37980         0.048109     -0.017782     -0.232540
O       5.18192      3.80093     10.53404         0.337682     -0.852544     -0.422031
O       5.88143     14.99678     10.45896        -0.089022      0.513379      0.086014
O       5.95924      7.49824      2.22987         0.048944      0.634383      0.114881
O       5.23699      7.47937     14.49883         0.397051      0.216310      0.317236
O       5.79700      7.44017      6.37695        -0.149869      1.971255      0.302023
O       6.00162      7.48888     10.35898        -0.522876      0.386284      0.480532
O       5.31698     11.27627      2.19187        -0.564154     -1.105297      0.455533
O       5.94176     11.24596     14.62938        -0.170348     -0.951381     -0.437947
O       5.45921     11.27179      6.48412         0.253710      0.069813     -0.250661
O       5.19581     11.21027     10.50804         1.318812      0.573446     -0.704258
O       9.79485      3.69502      2.18934        -0.671294      0.369937      0.057277
O       9.02894      3.71948     14.52332         0.162187     -0.228384      0.226590
O       9.07665     14.97855      2.40405         0.041599     -0.204747     -0.601030
O       9.66935     14.93851     14.61753         0.464236      0.069444     -0.090080
O       9.45339      3.70606      6.53403        -0.026513      0.929987     -0.798976
O       9.08279      0.11943      6.19039         0.436085     -2.824959      1.042281
O       9.65455      3.71547     10.59816        -0.249377      0.244408     -0.491165
O       8.91142      0.03244     10.45811         0.617410     -0.757201     -0.602711
O       9.10164      7.46789      2.22857         0.246343      0.832291      0.005500
O       9.57864      7.50454     14.53786         0.405868     -0.010224      0.190265
O       9.21309      7.49511      6.40991        -0.085758      0.079441     -0.096447
O       9.13495      7.45518     10.49713        -0.017302      0.872929     -0.357925
O       9.70490     11.21766      2.39779        -0.344002      0.113763     -0.240391
O       9.07256     11.22544     14.56419         0.017114      1.320168     -0.237524
O       9.59455     11.24389      6.33682        -0.626370      0.124270      0.249081
O       9.71690     11.26721     10.36838        -0.782525      0.228592     -0.081327
