  # total energy = -7879.70817551 
CRSYTAL
PRIMVEC
    15.2000000000000000    0.0000000000000000    0.0000000000000000
     0.0000000000000000   15.2000000000000000    0.0000000000000000
     0.0000000000000000    0.0000000000000000    17.000000000000000
PRESSURE
7.96415 8.18865 1.65145 -0.006888 0.257607 0.020135
PRIMCOORD
320 1
Pb       3.66767      3.87016      4.25013         0.470035      0.091099      0.084158
Pb       3.88239      3.88240      0.08377         0.204742      0.078301     -0.382148
Pb       3.61980      0.15096      4.35832         0.578903     -0.215608     -0.301416
Pb       3.91280     15.19768      0.00783        -0.098759     -0.145698      0.053158
Pb      15.11596      3.91111      4.15321         0.181870     -0.080398      0.732867
Pb       0.06125      3.69734     16.96480         0.204251      0.449294     -0.451988
Pb      15.18762      0.22067      4.34843        -0.306751     -0.223268     -0.168253
Pb       0.05456     15.15203     16.86375         0.196406     -0.135412      0.493988
Pb       3.89602      3.75267      8.44406        -0.128892      0.035692      0.550422
Pb       3.78616     15.01634      8.63806         0.353274      0.621281     -0.239471
Pb      15.19616      3.75663      8.57218        -0.005196      0.050505      0.128398
Pb      15.06063     15.08172      8.66465        -0.085660      0.369631     -0.377071
Pb       3.81083      3.83241     12.68579         0.005053     -0.399168     -0.121474
Pb       3.83409     15.14613     12.72215        -0.211715      0.108093      0.221488
Pb       0.02405      3.64529     12.72283         0.065923      0.329571      0.424390
Pb       0.07329     15.16822     12.78807         0.222485     -0.140795      0.039912
Pb       3.63049      7.75234      4.30529         0.272550     -0.856663      0.071099
Pb       3.93444      7.62972      0.03807        -0.216303     -0.372064      0.315611
Pb      15.12856      7.81311      4.20671        -0.207514     -0.769970      0.841217
Pb       0.11211      7.64050     16.86801         0.043816     -0.556508      0.186341
Pb       3.74688      7.59171      8.39852        -0.003956     -0.343387      0.034203
Pb      15.07371      7.48865      8.50720         0.031848      0.389783      0.222829
Pb       3.84327      7.49496     12.58305        -0.754033      0.342699      0.864269
Pb      15.13017      7.38510     12.64725         0.220482      0.691906      0.703276
Pb       3.54438     11.49619      4.30462         0.390647     -0.040248      0.189718
Pb       3.98752     11.39623      0.25408        -0.393122     -0.084875     -0.872301
Pb      15.09085     11.53372      4.19305        -0.336319     -0.751446      0.611277
Pb       0.12163     11.42044     16.93806        -0.102386     -0.029944      0.318958
Pb       3.74667     11.37781      8.51038         0.019326     -0.131211     -0.172619
Pb      14.99755     11.39712      8.52759         0.312994     -0.546780      0.274907
Pb       3.75851     11.28890     12.73405        -0.271574      0.006224      0.003953
Pb       0.00238     11.16321     12.77673         0.209054      0.432428      0.116819
Pb       7.56981      3.76134      4.11663        -0.028168     -0.092764      1.072802
Pb       7.55242      3.76935     16.99604        -0.127969      0.221739      0.227493
Pb       7.60164      0.02079      4.20389        -0.436935     -0.144243      0.493746
Pb       7.62605     15.15148      0.02123        -0.476783      0.182498     -0.008848
Pb       7.68098      3.85936      8.30168        -0.065615     -0.467859      0.613014
Pb       7.59207     15.09156      8.32192        -0.175111      0.392831      1.050445
Pb       7.50378      3.81747     12.74137         0.606840      0.105743     -0.085781
Pb       7.59023      0.03475     12.74396         0.200164     -0.355838     -0.130100
Pb       7.67697      7.67412      4.33161        -0.522128      0.080642     -0.670938
Pb       7.43781      7.69699      0.00225         0.636025     -0.852982      0.184646
Pb       7.57826      7.60281      8.37407        -0.165898     -0.041047      0.289208
Pb       7.51186      7.49111     12.68081         0.846835      0.207439      0.572697
Pb       7.54233     11.38897      4.21794         0.222038     -0.066105      0.103056
Pb       7.67744     11.40679      0.01778        -0.500719     -0.136070     -0.112832
Pb       7.51225     11.50655      8.42114         0.063021     -0.367417      0.490840
Pb       7.43895     11.23455     12.68409         0.667660      0.185597      0.260117
Pb      11.43998      3.67655      4.11801         0.071646      0.522293      0.288058
Pb      11.43314      3.69664     16.99973        -0.373241      0.008362     -0.010456
Pb      11.45686      0.02041      4.15842         0.003949     -0.249651     -0.032212
Pb      11.48481     15.10239     16.90773        -0.513262      0.465373     -0.179767
Pb      11.36394      3.80674      8.44351         0.053544     -0.007686      0.623050
Pb      11.25484     15.17778      8.40514         0.319586     -0.055311      0.591924
Pb      11.39120      3.78425     12.80509        -0.340221     -0.010806     -0.029660
Pb      11.40027     15.09377     12.79263        -0.119993      0.469265      0.084232
Pb      11.41793      7.78444      4.11753         0.590882     -0.776571      0.439977
Pb      11.30846      7.52271     16.92398        -0.166243     -0.133726      0.474398
Pb      11.27363      7.49537      8.45451         0.545539      0.577888      1.241665
Pb      11.29818      7.41787     12.77103        -0.072369      0.372826      0.113979
Pb      11.42315     11.38529      4.12354        -0.013632      0.036305      0.372012
Pb      11.37404     11.46479     16.97245         0.075466     -0.229259     -0.008553
Pb      11.28270     11.48746      8.49688         0.061598     -0.738604      0.699677
Pb      11.40016     11.36082     12.78800        -0.119657     -0.486360     -0.173380
Ti       1.88044      1.93258      2.16363         0.437711     -0.598877      1.263794
Ti       2.04124      1.79425     15.00313         0.193488      0.820883     -1.291627
Ti       1.69871     13.35721      2.39377         1.030934      1.004634     -1.636944
Ti       1.97826     13.20538     14.97880        -0.173811      0.611094     -0.881897
Ti      13.36967      1.82760      2.16347        -0.856307     -0.352422     -0.105186
Ti      13.36936      1.87808     15.05433        -0.475671     -0.038569     -0.752396
Ti      13.17103     13.27987      2.13376         0.569386     -0.087874      0.222101
Ti      13.36054     13.18518     14.96074        -0.775427      0.614990     -0.666166
Ti       1.89156      1.84957      6.69121        -0.330044      0.257798      0.057908
Ti       1.79469     13.32081      6.58457         0.024779     -1.094235     -0.238951
Ti      13.29695      1.91115      6.57552         0.768207     -0.040448     -0.639099
Ti      13.21560     13.27419      6.52482         0.158381      0.151183     -0.341922
Ti       1.95352      1.83012     10.75912         0.266609      0.116844     -0.045619
Ti       1.84564     13.25570     10.72983         0.044101     -0.822787      0.325162
Ti      13.24708      1.82940     10.78072         0.072999      0.558029     -0.744695
Ti      13.25134     13.29594     10.86836         0.453918     -1.184856     -1.019697
Ti       1.84381      5.70098      2.24513         0.972634      0.792054     -1.303500
Ti       1.89381      5.67700     14.98100         0.557869     -0.612791     -0.160886
Ti      13.30853      5.65282      2.16172        -0.134082      0.655934      0.063985
Ti      13.33430      5.70834     15.06593        -0.066998     -0.917872     -1.640254
Ti       1.84364      5.61914      6.50239         0.263953      1.021314      0.215830
Ti      13.25038      5.69641      6.58638         0.697067      0.489104     -1.406269
Ti       1.86206      5.67057     10.76856         0.488562     -0.510830     -0.612823
Ti      13.28521      5.59142     10.81670        -0.742335      1.067695     -1.465109
Ti       1.85103      9.51004      2.25507         0.438898     -0.145126      0.419132
Ti       1.94597      9.51189     15.00846         0.708470     -0.504316     -1.953833
Ti      13.33801      9.46348      2.07009        -0.184324      0.651551     -0.940185
Ti      13.34630      9.43403     14.97619         0.279260      0.700597     -0.279803
Ti       1.83084      9.48430      6.61603        -1.280538     -0.141385     -0.786339
Ti      13.16266      9.48134      6.59570         1.184164     -0.128526     -0.738601
Ti       1.81824      9.46216     10.64606         0.777228      0.243715      0.225391
Ti      13.24814      9.44785     10.75247        -0.649078     -0.492540     -1.250579
Ti       5.63241      1.83370      2.34834         0.031013      0.766059     -1.154504
Ti       5.73809      1.86481     14.92917         0.351712      0.006170      0.695119
Ti       5.54544     13.31171      2.35681         0.760265      0.238449      0.543972
Ti       5.65944     13.23633     14.97095         0.348659      0.051412     -0.028202
Ti       5.68845      1.85152      6.54879         0.427513     -0.716028     -0.262024
Ti       5.58678     13.25686      6.40737         0.683563     -0.126404     -0.909591
Ti       5.78204      1.80781     10.74628        -0.968276      0.833638     -1.360839
Ti       5.67904     13.20331     10.79719         0.892582      0.397264     -0.548957
Ti       5.69947      5.70783      2.42274        -0.545085      0.596869     -1.821090
Ti       5.66475      5.65820     14.97852         0.542161     -0.108948      0.849476
Ti       5.68537      5.63382      6.40339         0.126320      0.454251     -0.515301
Ti       5.72950      5.66184     10.56055        -0.520981     -0.951314      0.089180
Ti       5.66583      9.51802      2.38290         0.511892     -0.883081     -0.604097
Ti       5.72208      9.48826     15.03176        -0.895725      0.308254     -0.154511
Ti       5.63355      9.46009      6.42534         0.410535      0.261017     -0.403581
Ti       5.60667      9.38385     10.69560         0.579235      0.706280     -0.947989
Ti       9.46356      1.81410      2.23759         0.134932      0.545036     -1.596155
Ti       9.45228      1.85261     14.96732         0.311124      0.667009      0.731986
Ti       9.40172     13.25345      2.23619         0.169860     -0.111922     -0.421861
Ti       9.43287     13.26374     14.93918        -0.194410      0.195695     -0.623758
Ti       9.53499      1.90943      6.41660        -0.701644      0.467335     -0.125000
Ti       9.44662     13.28901      6.38207        -0.111431     -0.366511      0.001511
Ti       9.50199      1.85354     10.76877         0.079240      0.417293     -0.011452
Ti       9.50940     13.24960     10.77979        -1.404220     -0.096368     -1.301086
Ti       9.50200      5.61930      2.28403         0.474113      0.651683     -1.043163
Ti       9.50332      5.61032     15.12200        -1.292075      0.794596     -1.117025
Ti       9.55299      5.74525      6.29149        -0.801548     -1.128968      0.733046
Ti       9.48106      5.62806     10.67861         0.147489     -0.234328      0.601393
Ti       9.53915      9.46631      2.18854        -0.642627      0.764193     -0.341085
Ti       9.60283      9.46913     15.07814        -1.796599     -0.949463     -1.820095
Ti       9.44159      9.51910      6.58899         0.294249      0.327508     -1.431590
Ti       9.49349      9.43768     10.83216         0.103673     -0.430510     -1.189066
O       2.10326      1.84680      0.46365        -0.552092      0.008458     -1.340152
O       2.03461      1.75666     13.16402        -0.374996      0.151147      0.851004
O       1.80077     13.41665      0.61872         0.036334     -0.343363     -0.298688
O       1.85015     13.34064     13.18198         0.350799     -0.647936      0.990566
O      13.38104      1.68501      0.40481        -0.262235      0.739391     -0.492329
O      13.33746      1.83652     13.27167         0.024002      0.103251     -0.036576
O      13.11025     13.21327      0.34106         0.388727      0.319623     -0.309656
O      13.33544     13.13546     13.13787        -0.404253      0.678522      0.374649
O       1.93308      1.89206      4.88271        -0.186218     -0.170916     -0.100852
O       1.73984     13.18726      4.74474         0.318083      0.940107      0.433706
O      13.33090      1.88973      4.72042        -0.036348      0.057280      0.653921
O      13.12650     13.33073      4.74369         0.510047     -0.237582      0.299542
O       1.83324      1.79881      8.95444         0.226654      0.053140      0.864798
O       1.79528     13.16718      8.91865         0.435129      0.657631      0.473597
O      13.27854      1.84835      8.94823         0.042226     -0.113259      1.078142
O      13.25087     13.34856      9.02858         0.046489     -0.328987     -0.023331
O       1.89990      5.69864      0.41558        -0.245390      0.017228      0.712014
O       1.81439      5.59762     13.19843         0.474105     -0.089395     -0.453520
O      13.21967      5.64093      0.38661         0.541947      0.213059     -0.014003
O      13.36849      5.68436     13.17411        -0.038735     -0.112605      1.195940
O       1.91525      5.70150      4.73167        -0.227981     -0.422706     -0.422916
O      13.32011      5.81297      4.78117        -0.142694     -0.614390      0.497211
O       1.74191      5.64794      9.00518         0.402343     -0.000199     -0.186129
O      13.27656      5.68175      8.96252         0.024166     -0.371384      0.555912
O       1.91452      9.48335      0.49892        -0.400988      0.057578     -0.375358
O       1.96560      9.67598     13.17833        -0.110351     -0.417486      0.746609
O      13.49267      9.57824      0.25717        -0.487024     -0.449689      0.931436
O      13.37732      9.44471     13.20130        -0.155340      0.041541     -0.496886
O       1.75788      9.40818      4.75384         0.414468      0.570152      0.331625
O      13.29995      9.50091      4.76339        -0.325657     -0.090404      0.141932
O       2.01633      9.46153      8.86081        -0.320326      0.015190      0.282286
O      13.23424      9.56179      8.94706        -0.047691     -0.493079      0.889605
O       5.64802      1.83099      0.51766        -0.011127      0.090891      1.023627
O       5.75028      1.93086     13.16503         0.014303     -0.008628     -0.526514
O       5.66431     13.34102      0.57117        -0.080887      0.013178     -0.281610
O       5.62597     13.03097     13.19587         0.461679      0.692964      0.055329
O       5.75043      1.80666      4.75751        -0.411954      0.246422      0.171536
O       5.60159     13.20781      4.59732         0.027688     -0.034156      0.653511
O       5.71491      1.79604      8.93218         0.202453     -0.164651      0.506908
O       5.78426     13.26959      8.99348        -0.714429      0.141550      0.076743
O       5.70257      5.64831      0.47045        -0.264408      0.182649      1.671592
O       5.57083      5.63992     13.19013         0.315522      0.102379      0.081848
O       5.70051      5.77127      4.60969         0.136168     -0.472344      0.271559
O       5.86601      5.62851      8.79036        -0.494145      0.276862     -0.081508
O       5.60835      9.45550      0.51163         0.065889      0.075507      0.680128
O       5.53608      9.57967     13.22910         0.529167     -0.381934      0.312988
O       5.83719      9.50422      4.58873        -0.581868      0.008510      0.829607
O       5.68686      9.35285      8.88885        -0.230706      0.162369      0.489699
O       9.30989      1.96020      0.43644         0.814272     -0.324796      1.064672
O       9.39467      1.90956     13.20146         0.270580     -0.322682     -0.127222
O       9.39487     13.15661      0.40680         0.376260      0.264893      0.228594
O       9.49878     13.30117     13.13008        -0.178181      0.000581      0.310654
O       9.52254      1.95221      4.62325         0.173449     -0.535598      0.172022
O       9.49176     13.34781      4.61326         0.080602     -0.250558     -0.017683
O       9.63996      1.83702      8.98454        -0.297207      0.212310      0.070547
O       9.53631     13.26530      8.85801        -0.193366      0.102031      1.374836
O       9.62118      5.60022      0.42907        -0.058365      0.146400      1.245669
O       9.41602      5.60970     13.28768         0.215830      0.263920      0.492704
O       9.55640      5.75204      4.52851         0.164258      0.235901     -0.082794
O       9.60189      5.53016      8.89309        -0.660576      0.297770      0.722613
O       9.56003      9.45222      0.40258        -0.025746      0.476497     -0.488209
O       9.46975      9.30917     13.24242         0.143023      0.372495      0.837249
O       9.46699      9.53229      4.74318         0.238519     -0.421894      0.574225
O       9.48304      9.48864      9.00271        -0.284277     -0.185114      0.252133
O       3.76160      1.95389      2.68573        -0.312234     -0.270242      0.246554
O       3.95826      1.73336     15.32579        -1.978373      0.059993      0.168403
O       3.71732     13.28369      2.63039        -0.184359      0.168500      0.266143
O       3.79231     13.37077     15.40516         0.430716     -0.136403     -0.038618
O      15.18693      1.86028      2.54382         1.200776      0.155187      0.397297
O       0.11144      1.91009     15.38143        -0.505136     -0.182543     -0.040114
O      15.03718     13.17979      2.54886         0.141822      0.915349      0.239898
O       0.02447     13.19858     15.32863        -0.222007      0.105965      0.035915
O       3.81008      1.81684      7.09561         0.076094     -0.315069     -0.899613
O       3.78803     13.24601      6.93697        -0.739644      0.344874     -0.231295
O      15.18454      1.87974      6.90368         0.186487     -0.391003      0.068680
O      15.12169     13.20800      6.91968        -0.284019      0.402895     -0.270877
O       3.85621      1.74892     11.09199        -0.566188      0.291998     -0.185849
O       3.83946     13.36301     11.09777        -0.691903     -0.369841     -0.520082
O       0.01337      1.88036     11.14500        -0.058162     -0.460212     -0.251618
O      15.15307     13.25185     11.11804         0.275230      0.087014     -0.277268
O       3.79659      5.75006      2.63640        -0.456106     -0.486300      0.035603
O       3.80643      5.84744     15.43626        -0.365352     -0.807516     -0.465479
O       0.00702      5.84502      2.64271        -0.352664     -0.980517     -0.258323
O       0.03714      5.53862     15.41028        -0.115913      0.337125      0.168860
O       3.83226      5.58968      6.77227        -0.497633     -0.083457      0.369431
O      15.17411      5.78824      6.83555         0.152860     -0.413496      0.169278
O       3.77012      5.73337     10.96071         0.323770     -0.338453      0.197286
O      15.14097      5.55630     11.10783         1.236709     -0.251708      0.143331
O       3.73987      9.48943      2.72020         0.045001      0.813775     -0.298671
O       3.76380      9.41974     15.45971         0.818404     -0.170898     -0.075340
O      15.17014      9.61156      2.57849         0.258611     -0.340774     -0.071204
O       0.06826      9.78464     15.16050        -0.573208     -0.845892      0.782493
O       3.75039      9.47120      6.82466         0.911678      0.038148     -0.187377
O      15.16521      9.39928      7.00254         0.232557      0.388804     -0.365400
O       3.72688      9.44404     11.07026         0.623079     -0.004227     -0.173703
O      15.18872      9.58122     11.02218         0.097393     -0.126164     -0.034442
O       7.54214      1.87370      2.56547         1.040267     -0.133004      0.401746
O       7.58470      1.99739     15.34990         0.358008      0.001016      0.002925
O       7.57659     13.37478      2.65367         0.011123     -0.200139     -0.204973
O       7.55372     13.13152     15.33830         0.098191      0.216389      0.006054
O       7.62778      1.85315      6.94242         0.676931      0.019379     -0.742122
O       7.52882     13.29668      6.82693         0.838112     -0.329423     -0.540913
O       7.60435      1.93089     11.15799         0.467939     -0.047224     -0.096140
O       7.60175     13.20891     10.98259         0.174419     -0.101852      0.744939
O       7.64907      5.76597      2.62444         0.261684     -0.180388     -0.118088
O       7.57399      5.63569     15.41625        -0.279719     -0.207542     -0.280326
O       7.61322      5.63559      6.76226         0.562343      0.495018     -0.433249
O       7.55565      5.73441     11.10284         0.131888     -0.562426     -0.382368
O       7.65571      9.56478      2.57284        -0.253308     -0.434842      0.007626
O       7.56889      9.50593     15.35087         0.246538      0.376174      0.135643
O       7.52767      9.49887      6.81820         0.001198     -0.871788      0.151578
O       7.56244      9.36447     11.20325        -0.510336      0.104802     -0.386016
O      11.45863      1.95723      2.50570        -0.595352     -0.160530      0.050777
O      11.38348      1.87403     15.37061         0.196346     -0.433005     -0.059092
O      11.35279     13.32168      2.54815         0.307072     -0.054441      0.167082
O      11.31288     13.32487     15.17034         0.975686      0.346400      0.644956
O      11.43851      1.98059      6.93639        -0.835988     -0.353413     -0.853192
O      11.33184     13.09490      6.79699         0.118400      0.764775     -0.088565
O      11.38518      1.86500     11.24231         0.115769     -0.274494     -0.136295
O      11.37845     13.35831     11.05480        -0.558086     -0.234310      0.675161
O      11.48444      5.66118      2.55412        -0.410858     -0.293232      0.199800
O      11.45107      5.79308     15.23773        -0.070684     -0.206931      0.407236
O      11.36065      5.68879      6.87963         0.373649     -0.339476     -0.484598
O      11.37666      5.64853     11.16577         0.000180     -0.038625     -0.118291
O      11.46930      9.56567      2.47807        -0.046993     -0.288227      0.212862
O      11.43919      9.36979     15.21892        -0.024220      0.083581      0.533665
O      11.31276      9.41321      6.94319        -0.619029      0.765311     -0.358890
O      11.38132      9.22233     11.20216        -0.156607      0.608054     -0.084299
O       1.89231      3.80656      2.52677        -0.345777      0.236850      0.456942
O       2.05157      3.66649     15.25842         0.057255      1.026335      0.517151
O       1.86040      0.09070      2.70570        -0.089899     -0.596764      0.416014
O       1.85504     15.14423     15.35592         0.129207     -0.444622      0.089448
O      13.45646      3.71305      2.54166        -0.471725      1.532525     -0.133717
O      13.36492      3.76932     15.40586        -0.494086     -0.000104      0.098438
O      13.35307     15.18410      2.60417        -0.433758     -0.556956      0.112834
O      13.32521     15.19366     15.35379         0.089783     -1.219637     -0.254465
O       1.93770      3.74386      6.97405        -0.386467      0.362391     -0.126859
O       1.87411     15.13149      7.02856        -0.045034      0.162486     -0.510462
O      13.45382      3.81784      6.95171        -0.880351     -0.044684     -0.529073
O      13.26375      0.00426      6.84743        -0.159019     -0.868726      0.011399
O       2.01690      3.72823     11.14877        -0.516072     -0.200115     -0.345388
O       1.94775     15.08722     11.25070        -0.607168      1.055108     -0.982105
O      13.26066      3.73375     11.16265         0.035355     -0.602513     -0.027637
O      13.25763     15.16270     11.10520         0.276186      0.434945      0.432296
O       1.93836      7.58743      2.56116        -0.461848      1.179245      0.128219
O       1.75213      7.55680     15.03706        -0.254445      0.809009      1.149115
O      13.34943      7.60786      2.52268        -0.360458      0.351474     -0.392394
O      13.41045      7.58036     15.29971         0.646345     -0.004662      0.360705
O       1.92764      7.53613      6.83507         0.299300     -0.031986      0.238254
O      13.19100      7.68641      7.00014         0.282938     -2.455559     -0.140906
O       1.88504      7.57221     11.08619        -0.561684      0.226094     -0.096697
O      13.45795      7.52362     11.01761        -0.434327      0.006090      0.222881
O       1.80748     11.53271      2.70082         0.423687     -2.553476     -0.162193
O       2.06750     11.36457     15.44748        -0.189562      1.131669      0.139855
O      13.22350     11.38510      2.49657         0.008130      0.199518      0.115716
O      13.22648     11.37341     15.21417        -0.431064      0.241961      0.435602
O       1.90160     11.41333      6.85729         0.023413     -0.548380      0.026910
O      13.25616     11.28362      6.97886        -0.062635      2.366345     -0.436514
O       1.96615     11.41719     11.08753        -0.130996     -0.662514     -0.334552
O      13.05441     11.28939     11.03709         0.423833      1.272389      0.482263
O       5.68736      3.80776      2.75377        -0.082589     -0.321714     -0.507642
O       5.69846      3.76134     15.41243        -0.744645      0.418133     -0.369837
O       5.68315      0.03436      2.81956        -0.575445     -0.750661     -0.614315
O       5.80634     15.15332     15.36279         0.289116     -0.421244     -0.311085
O       5.74860      3.70446      6.74593        -0.268800      0.843116      0.273148
O       5.78360     15.08252      6.73267        -0.653381      1.022154      0.402676
O       5.64704      3.81969     10.93969         0.026690     -0.502034      0.485147
O       5.76797     15.19507     11.19641         0.228236     -1.154170     -0.148101
O       5.72117      7.60867      2.62099         0.093094      0.353840      0.061522
O       5.74251      7.58558     15.36808        -0.093893      0.117279     -0.133748
O       5.64747      7.53056      6.68439         0.261226      0.833303      0.408408
O       5.59748      7.52668     11.00088         0.424123      0.208895      0.315423
O       5.73699     11.39748      2.49540        -0.362531      0.278948      0.319903
O       5.62731     11.37718     15.51552        -0.274911     -0.023324     -0.086728
O       5.66465     11.37321      6.77746         0.012749     -0.556529      0.236322
O       5.68187     11.29048     11.02201        -0.084646      0.169666      0.005875
O       9.47907      3.74340      2.68084         0.247690      0.647662     -0.592310
O       9.61242      3.79145     15.43497        -0.224215     -0.842085     -0.201732
O       9.63967     15.15267      2.37158        -0.571582      0.779434      0.669643
O       9.26350      0.01430     15.38003         0.919851     -0.894100     -0.477994
O       9.51368      3.82210      6.68875         0.134632     -0.297520      0.116719
O       9.53817      0.00164      6.64689         0.284987     -0.213601      0.483110
O       9.51380      3.76149     11.20015        -0.196057      0.151485     -0.422140
O       9.41556     15.15355     11.07242         0.244859      0.169601      0.300118
O       9.67789      7.67397      2.51111        -0.548448     -1.619066      0.217550
O       9.33678      7.52736     15.48257         1.039816      0.864145     -0.040546
O       9.53258      7.53061      6.90821        -0.857779      0.573514     -0.722328
O       9.46102      7.47866     11.05843        -0.141807      0.076052      0.206969
O       9.57427     11.40390      2.57768        -0.259457     -0.139115      0.030616
O       9.54134     11.38748     15.31295         0.072929     -0.696569      0.079017
O       9.29568     11.38487      6.79721         0.786807      0.118223      0.000078
O       9.50321     11.30947     11.10579         0.433772      0.586607      0.210311
