  # total energy = -7880.09693862 
CRSYTAL
PRIMVEC
    15.3600000000000000    0.0000000000000000    0.0000000000000000
     0.0000000000000000   15.3600000000000000    0.0000000000000000
     0.0000000000000000    0.0000000000000000    17.440000000000000
PRESSURE
0.821076 1.22598 -2.35241 -0.290258 -0.218587 -0.022718
PRIMCOORD
320 1
Pb       3.86098      3.82721      4.28516         0.000117     -0.276551     -0.588069
Pb       3.76306      3.88523     17.40345         0.104497     -0.280097     -0.100026
Pb       3.86989     15.34613      4.27781         0.172907     -0.179718     -0.284191
Pb       3.93192     15.31112      0.02636        -0.494823      0.442307     -0.364721
Pb      15.32174      3.89737      4.31524        -0.231438     -0.020194     -0.077930
Pb      15.22701      3.72648     17.34910         0.121710      0.397057      0.297016
Pb      15.31404      0.01027      4.39898        -0.819963     -0.633861     -0.420031
Pb       0.16663      0.04887     17.37365        -0.365685     -0.246063      0.329883
Pb       3.96661      3.86437      8.62503        -0.447984     -0.446841      0.159313
Pb       3.80903     15.29928      8.65264        -0.139009      0.129654      0.000507
Pb       0.15693      3.74864      8.71522        -0.394307      0.516376     -0.161547
Pb       0.10863     15.28957      8.64172        -0.403410     -0.126225     -0.317445
Pb       3.91364      3.93041     13.10690        -0.704926     -0.354991     -0.041552
Pb       4.00713      0.06044     13.18625        -0.536012      0.054909     -0.092634
Pb      15.30084      3.88232     12.95719         0.174468      0.411319     -0.224109
Pb      15.32522     15.35020     13.05873        -0.433112     -0.448228     -0.116358
Pb       3.77842      7.64480      4.35754        -0.029491      0.471936     -0.343640
Pb       3.89307      7.75488     17.42553        -0.248851     -0.400178     -0.508099
Pb      15.18930      7.54555      4.32034         0.437387     -0.101097      0.230704
Pb       0.18110      7.59558      0.00616        -0.879116      0.027670     -0.055343
Pb       3.75473      7.66247      8.63270        -0.151525      0.104107     -0.250188
Pb      15.30701      7.73621      8.63631         0.009846     -0.508898      0.283988
Pb       3.87447      7.77279     13.08422        -0.513630     -0.129880     -0.496808
Pb      15.26487      7.72939     12.95323         0.270330     -0.308787     -0.149404
Pb       3.91499     11.42475      4.40858        -0.464874      0.100261     -0.546922
Pb       3.67677     11.51435      0.02469         0.683240      0.188816     -0.218027
Pb      15.29237     11.36479      4.37577         0.489988      0.763189     -0.064155
Pb       0.07656     11.41132      0.08109        -0.468504      0.333930     -0.278468
Pb       3.81309     11.45723      8.65315         0.050186      0.218886     -0.052789
Pb       0.07440     11.64381      8.64119        -0.549326     -0.196565     -0.015196
Pb       3.74905     11.57318     13.04793        -0.280628     -0.478018     -0.265550
Pb      15.17330     11.46318     12.95143         0.469886     -0.102274      0.235925
Pb       7.57453      3.94321      4.23367         0.167904     -0.416461      0.205136
Pb       7.66300      3.80408      0.01323        -0.582349     -0.130390     -0.413360
Pb       7.55586     15.28919      4.31539         0.359025      0.057609     -0.024448
Pb       7.82703     15.25929      0.02443        -0.086908      0.410844     -0.454196
Pb       7.68661      3.84853      8.63939         0.159353     -0.869195     -0.018963
Pb       7.69951      0.10754      8.71341        -0.311773     -0.073709     -0.230513
Pb       7.56692      3.69076     12.99994        -0.277293      0.069737      0.164568
Pb       7.68446     15.15221     13.13627         0.250339      0.483495     -0.227758
Pb       7.65216      7.78546      4.39528         0.545512     -0.078322     -0.372311
Pb       7.68882      7.58853     17.38155         0.172254      0.256743     -0.111940
Pb       7.70235      7.55142      8.74550         0.165103      0.412490     -0.516670
Pb       7.78978      7.66711     13.12844        -0.305728      0.347723     -0.434208
Pb       7.64045     11.48150      4.32161         0.422147      0.089304     -0.122248
Pb       7.67099     11.43789     17.33223         0.237116     -0.201305      0.397130
Pb       7.72291     11.51407      8.79508        -0.072541     -0.328277     -0.831847
Pb       7.55506     11.50852     13.05704         0.712104     -0.523620     -0.333194
Pb      11.56991      3.92608      4.34938        -0.477348     -0.112770     -0.180763
Pb      11.36242      3.79203     17.38281         0.447338      0.554341      0.247352
Pb      11.55352      0.10044      4.38311        -0.440827     -0.736384      0.019459
Pb      11.63095      0.06703     17.39034        -0.457802     -0.765618      0.751661
Pb      11.65958      3.66852      8.67808        -0.582498      0.491622      0.336669
Pb      11.52079      0.06088      8.69569         0.116807     -0.386438     -0.188266
Pb      11.43316      3.87630     12.89524         0.811965     -0.232238      0.171402
Pb      11.45448     15.33027     13.13316         0.303862     -0.121670     -0.300230
Pb      11.53801      7.65263      4.43439        -0.728299     -0.339808     -0.789412
Pb      11.43881      7.72221     17.33085         0.543872     -0.623274      0.295451
Pb      11.51012      7.63311      8.68010        -0.076763     -0.349250      0.134397
Pb      11.60410      7.64587     13.09486         0.063034      0.173650     -0.479746
Pb      11.41736     11.55895      4.34378        -0.228226      0.488191     -0.235815
Pb      11.58475     11.54234     17.41280        -0.211399      0.079580     -0.288479
Pb      11.41183     11.52879      8.72011         0.386289     -0.069754     -0.224218
Pb      11.46197     11.58741     13.10085        -0.181132     -0.153465     -0.223066
Ti       1.76112      1.91477      2.40318         1.272802      0.268937     -2.151946
Ti       1.79747      1.94660     15.34309         1.323734      0.080559      1.286243
Ti       1.85124     13.44891      2.42433         0.152892     -1.087877      0.404772
Ti       1.87251     13.42471     15.34286         0.050550      0.927292     -1.581927
Ti      13.34379      1.90437      2.34884        -0.258727     -0.574438     -0.652715
Ti      13.26473      1.91073     15.42115         0.339299     -0.059119     -2.351910
Ti      13.38210     13.37166      2.37276        -0.009225      1.095420     -0.153043
Ti      13.50302     13.40387     15.42849        -0.560935     -0.142154     -0.790690
Ti       1.88882      1.80473      6.46932        -0.350872      0.378609      1.491309
Ti       1.96506     13.38777      6.51364        -1.121537     -0.349679     -0.962272
Ti      13.43907      1.91054      6.65336        -0.144682     -1.034999     -1.175849
Ti      13.31642     13.42514      6.66358         0.335973     -0.102894      0.453296
Ti       1.82263      1.82874     11.11306         0.711714      1.595456     -0.965036
Ti       1.91004     13.45316     11.16496        -1.257505     -0.531951     -0.979829
Ti      13.36469      1.86153     11.05916        -0.695584     -0.361401     -0.561961
Ti      13.39018     13.39709     11.04553        -0.345163      0.150519     -0.922352
Ti       1.87929      5.74689      2.35623         0.366155     -0.327405     -0.142971
Ti       1.79897      5.74226     15.39636         0.482234     -0.249100     -0.688068
Ti      13.32621      5.69151      2.16352        -0.597811      0.055431     -1.954080
Ti      13.37357      5.76104     15.36776        -0.020952      0.389694     -0.174570
Ti       1.93792      5.60369      6.54313        -1.910221      0.752411     -0.824748
Ti      13.38197      5.71734      6.72846         0.948847      0.368608      0.257109
Ti       1.95099      5.75926     11.00828        -0.892521      0.123972      1.333243
Ti      13.39846      5.75305     11.00170         0.238458     -0.282465     -2.124242
Ti       1.95489      9.55271      2.35781        -0.159497      0.454148      0.492838
Ti       1.89767      9.62272     15.37967         0.190905     -0.552050     -1.166471
Ti      13.45794      9.48663      2.41417        -0.389922      0.498331     -1.444052
Ti      13.53767      9.57250     15.41798        -1.352937     -1.003029     -1.235318
Ti       1.87339      9.55587      6.68662        -0.043006     -0.414333     -0.365393
Ti      13.36833      9.59724      6.65992         0.549605      0.062965      0.734838
Ti       1.91059      9.63422     10.99818        -0.919065     -0.855522      1.620187
Ti      13.29567      9.56086     10.98115         1.310689     -0.167130     -0.189649
Ti       5.65027      1.91063      2.28365         0.681219     -0.390567     -0.563088
Ti       5.69673      1.89034     15.39971        -0.355635      1.464262     -0.112734
Ti       5.68728     13.35748      2.21283        -0.793532      0.365428     -1.295142
Ti       5.68849     13.35211     15.48329         0.212094      0.515712      1.548062
Ti       5.61705      1.85697      6.60289         1.082342      0.310668     -0.592895
Ti       5.71926     13.43468      6.73225         0.808949     -0.051134      0.054963
Ti       5.63926      1.84067     11.03252         0.395862     -0.278044      0.559082
Ti       5.71791     13.35169     11.02015        -0.655855      0.377640     -1.495707
Ti       5.72328      5.83043      2.23688        -0.065777     -1.232208     -0.532327
Ti       5.69567      5.77231     15.39058         0.574625     -0.933897      0.729599
Ti       5.71151      5.73715      6.58216         0.665608      0.021408      0.298506
Ti       5.72914      5.70552     11.02205        -0.737308      0.394858      0.316183
Ti       5.78193      9.53136      2.32131         0.474086      0.660894     -0.322819
Ti       5.77906      9.62486     15.34226         0.001304     -0.940439      0.505009
Ti       5.80448      9.60244      6.77209         0.246330     -0.377370     -0.599291
Ti       5.74406      9.52171     10.97102        -0.029205      0.590968     -0.411574
Ti       9.49006      1.97128      2.46769         0.221565     -0.191621     -0.863383
Ti       9.58508      1.92713     15.27812        -0.976065     -1.388703     -0.598088
Ti       9.53532     13.52472      2.29492         0.423652     -0.709541      0.069038
Ti       9.60648     13.40451     15.44317         0.062933      0.011353     -0.230498
Ti       9.53993      1.82122      6.68772        -0.429487      0.516464     -0.596667
Ti       9.50918     13.44469      6.70831         0.310723     -0.274337     -1.553736
Ti       9.56185      1.88890     11.07858        -0.539951     -0.990910     -1.201813
Ti       9.52358     13.42859     10.96550         1.640962     -1.497340      0.243348
Ti       9.56404      5.77188      2.29446         0.101463      0.771456      0.629987
Ti       9.57322      5.71824     15.26467         0.217784      0.002032     -0.271900
Ti       9.49992      5.66688      6.73021         0.921366      0.186008     -0.378038
Ti       9.47827      5.66305     11.08355         1.515348      1.648147     -1.395107
Ti       9.68480      9.68778      2.31161        -2.134190     -1.306605      0.407365
Ti       9.67534      9.53219     15.37382        -0.746526      1.179123     -1.510387
Ti       9.61698      9.55795      6.56944        -1.643051      0.418598     -0.610003
Ti       9.58105      9.53700     10.99805        -0.323441      0.554050      0.735167
O       1.91170      1.88030      0.54089        -0.579608      0.160547      1.117709
O       1.72299      1.90575     13.63213        -0.078219     -0.105041     -1.502693
O       1.86498     13.38057      0.63711        -0.025010     -0.173344     -0.184507
O       1.73021     13.46553     13.51603         0.470696     -0.111116      0.774527
O      13.35966      1.86763      0.52655        -0.251006      0.239951      0.304814
O      13.09483      1.76885     13.53214         0.910604      0.599189      1.811167
O      13.49560     13.48011      0.60945        -0.168974     -0.600320     -0.502959
O      13.48328     13.27115     13.65547         0.078983      0.760079     -0.005089
O       1.60581      1.81667      4.76747         0.844592      0.092921     -1.563026
O       1.94006     13.27543      4.72210        -0.009606      0.525705      1.015028
O      13.43027      1.93885      4.80859         0.022341     -0.141234      1.183097
O      13.25478     13.46122      4.93444        -0.067695     -0.024019     -1.203027
O       1.93319      1.92413      9.30759        -0.258644     -0.217650      0.397320
O       1.88542     13.41916      9.35896        -0.139600      0.037088     -0.270048
O      13.25900      1.81817      9.23478         0.331395      0.348725      0.163771
O      13.32746     13.19033      9.25852         0.250840      0.536242      0.048632
O       1.90583      5.74727      0.59737        -0.557912      0.202595     -0.598089
O       1.73255      5.71363     13.62245         0.319575      0.253464      0.547917
O      13.26513      5.65873      0.29339         0.379677      0.151130      2.179384
O      13.40212      5.99062     13.55853        -0.043390     -0.997572     -0.223206
O       1.76085      5.56822      4.72357         0.623495      0.861699      0.990262
O      13.35789      5.68012      4.91300        -0.272631      0.189333      0.363071
O       1.88133      5.65914      9.27647         0.318447     -0.344961     -1.387880
O      13.56196      5.62008      9.17114        -0.769764      0.370850      0.062856
O       1.83850      9.47508      0.55688         0.257522      0.529461      0.100149
O       1.92179      9.53539     13.57034         0.078537      0.320183      1.577081
O      13.51030      9.51628      0.63232        -0.153126      0.328554      0.259149
O      13.39755      9.44827     13.60220         0.277642      0.251274      0.484513
O       1.96895      9.48256      4.93590        -0.125515      0.412845     -0.397774
O      13.35890      9.30472      4.89981         0.006216      0.565082     -0.727205
O       1.89429      9.50722      9.27114         0.290300      0.508314     -1.484403
O      13.40373      9.67489      9.23671        -0.112404     -0.385814     -0.720851
O       5.89516      1.85104      0.49138        -0.787627      0.068102      0.109997
O       5.58116      2.08999     13.56037         0.673078     -0.843503      1.022584
O       5.54884     13.52331      0.36412         0.336610     -0.157612      0.820063
O       5.79646     13.23849     13.76450         0.025850      0.324254     -1.968914
O       5.45600      1.91630      4.82081         0.933495     -0.316793      0.406179
O       5.67727     13.50542      4.98886         0.024550     -0.385999     -0.894545
O       5.65858      1.60976      9.27061        -0.209684      0.886999      0.296658
O       5.73592     13.36494      9.21431        -0.309057      0.318955      0.754205
O       5.79644      5.67882      0.43311         0.166692      0.763155      0.975511
O       5.87132      5.69440     13.62728        -0.645391     -0.264543     -0.588160
O       5.90729      5.74823      4.82939        -0.980115      0.163502      0.176188
O       5.70131      5.67409      9.25652        -0.169066     -0.075389     -0.259160
O       5.83106      9.54211      0.57438        -0.243585     -0.615983     -0.817419
O       5.74803      9.44666     13.59243        -0.139785      0.978825     -0.335379
O       5.72889      9.55690      4.94899        -0.164431      0.031008     -0.017525
O       5.74478      9.71650      9.14197        -0.133110     -0.912263      0.976495
O       9.70532      2.11924      0.68595        -0.727331     -0.574412      0.118538
O       9.56667      1.65780     13.50085         0.010106      0.703424      0.036413
O       9.64171     13.45347      0.50879        -0.469245     -0.097519     -0.459750
O       9.54827     13.35948     13.65859        -0.445744      0.111515     -0.287986
O       9.39550      1.76428      4.92760         0.284587      0.227404     -0.646312
O       9.42975     13.48545      4.85631         0.239913     -0.178117      0.841332
O       9.51778      1.77143      9.24980         0.356139      0.319941      1.057317
O       9.72901     13.12514      9.16931        -1.127064      1.224769      1.264931
O       9.67638      5.72060      0.54660        -0.471980     -0.089644     -1.108571
O       9.56870      5.82154     13.44402        -0.137820     -0.120065      0.573549
O       9.58433      5.67815      4.98901        -0.246717     -0.195054     -0.254477
O       9.52979      5.78661      9.28320        -0.638720     -0.209492     -0.432777
O       9.51158      9.58519      0.54001         0.461971      0.237724     -0.331708
O       9.68177      9.56310     13.53013        -0.404111     -0.359197      1.464495
O       9.50563      9.58725      4.72004         0.480431      0.100445      1.312305
O       9.46708      9.68777      9.24355         0.046996     -0.358455     -0.668606
O       3.74633      1.87642      2.79434        -0.526210     -0.012693     -0.334706
O       3.78976      2.10636     15.69606         0.456109     -0.856379      0.070033
O       3.81437     13.41379      2.71473        -0.606888     -0.123946      0.070855
O       3.77686     13.36924     15.66452        -0.115583      0.265693      0.457469
O      15.24340      1.99967      2.62567         0.278704     -0.065128      0.207654
O      15.24793      1.90830     15.82888         0.182118      0.272318     -0.395411
O      15.23812     13.28886      2.91301         0.372569      0.066300     -0.435468
O       0.01752     13.51073     15.78466        -0.132652     -0.110643      0.359956
O       3.77807      1.82882      6.97243        -0.459180      0.014166      0.432280
O       3.80021     13.41610      7.01018         0.263813     -0.078923      0.417711
O       0.04223      1.75150      6.97053        -0.624765      0.473767      0.575717
O      15.26939     13.33973      6.91882         1.228275      0.374660      0.633529
O       3.73932      1.77374     11.53443         0.306752      0.326008     -0.207012
O       3.74968     13.39309     11.39534         1.443430      0.072723      0.628074
O      15.19369      1.92011     11.32470         1.228414     -0.158310      0.553415
O      15.24799     13.48001     11.36640         0.215377     -0.247620      0.484150
O       3.78721      5.76177      2.51609         0.095397     -0.050912      0.887061
O       3.81504      5.72414     15.94242        -0.068963      0.738541     -0.961462
O      15.15682      5.66577      2.64894         1.181240      0.138915     -0.045496
O      15.28153      5.65231     15.83103         0.821760      0.165926     -0.012344
O       3.80461      5.57263      6.99848        -0.241007      0.803441     -0.107775
O      15.31286      5.69533      6.94292         0.748839     -0.259919      0.174966
O       3.81981      5.70880     11.39445         0.253291     -0.451522      0.315153
O      15.26244      5.76826     11.26902         1.497338     -0.219377      0.994396
O       3.82389      9.57830      2.74744        -0.225476     -0.134487      0.140102
O       3.79969      9.60165     15.83206         0.039809     -0.273553     -0.150562
O       0.00814      9.54930      2.77045        -1.001892     -0.072474      0.112964
O      15.34163      9.58529     15.85765         1.295765     -0.116136      0.016378
O       3.76167      9.57744      7.09005         0.616690     -0.085979      0.363552
O      15.29491      9.58401      7.09501         0.364822      0.265302     -0.231400
O       3.78160      9.68486     11.46402         0.906878      0.081374     -0.002921
O      15.35556      9.45278     11.36244        -0.277797      0.598770      0.055803
O       7.56113      1.95647      2.67699         0.029769     -0.242781      0.336328
O       7.74431      1.88303     15.68621        -0.815109      0.264136      0.248284
O       7.47337     13.44564      2.59240         1.246108     -0.046382      0.321563
O       7.64290     13.47500     15.84237        -0.336983     -0.160255      0.044557
O       7.63195      1.82326      7.15948        -0.449374      0.579073     -0.150235
O       7.66323     13.43027      6.98109        -0.508577      0.094534      0.798906
O       7.63257      1.97299     11.41513        -0.386295     -0.659011     -0.022224
O       7.54936     13.32906     11.41912         1.762879      0.117863      0.205378
O       7.60073      5.83237      2.67958        -0.328610     -0.359660     -0.126144
O       7.73330      5.79831     15.78563         0.357886     -0.604728     -0.128779
O       7.56504      5.58312      7.08772         0.558611      0.387516      0.168329
O       7.59906      5.66350     11.28762        -0.239715      0.000391      0.653150
O       7.67925      9.59224      2.74592        -0.809368     -0.398535      0.132428
O       7.68216      9.67125     15.74461        -0.638154     -0.460824     -0.197356
O       7.68172      9.55313      6.94184        -0.402424      0.128025      0.499852
O       7.59898      9.54141     11.39686        -0.351683      0.435589      0.133169
O      11.42701      1.75967      2.82642         0.067771      1.015893     -0.240712
O      11.38894      1.80217     15.90578         0.956781      0.615086     -0.398232
O      11.38200     13.56247      2.61506         0.920505     -0.611546      0.657796
O      11.54429     13.37950     15.67548         0.036271     -0.366966      0.713754
O      11.47055      1.76583      6.97806         1.216716      0.538184      0.222706
O      11.45263     13.38866      7.06687         0.061337      0.052320      0.143010
O      11.42135      1.83860     11.47545        -0.116854      0.238850     -0.298953
O      11.47110     13.46063     11.49952        -0.627858     -0.502181     -0.152496
O      11.42855      5.64912      2.65931         0.877634      0.239052      0.587807
O      11.51042      5.84827     15.70862        -1.603197     -0.007524     -0.259993
O      11.41746      5.84745      7.07985         0.756054     -0.495354      0.098536
O      11.43981      5.77448     11.18358        -0.143514     -0.070120      1.034159
O      11.43189      9.51648      2.69191         1.669895      0.091171      0.375378
O      11.53217      9.60341     15.74481         0.103090      0.120692      0.501942
O      11.40814      9.47456      7.04188         1.121285     -0.002179     -0.161435
O      11.47726      9.41106     11.30991        -0.206972      0.240926      0.127640
O       1.95479      3.83553      2.70461        -0.674424     -0.403119      0.119508
O       1.99041      3.86153     15.68819        -1.123625     -0.025506      0.521128
O       1.75269     15.31404      2.58169        -0.116299      0.263861      0.726883
O       1.95862      0.00061     15.64635        -0.234690      0.213826      0.612461
O      13.23225      3.82668      2.59847         0.233942     -0.496894      0.259891
O      13.25835      3.83344     15.59181         0.320270     -1.015745      0.294083
O      13.41925     15.33869      2.71379         0.165138      0.182501      0.381398
O      13.35854      0.03453     15.75147         0.267412     -0.814950      0.113870
O       1.84044      3.72661      6.74531         0.175551      0.220346      0.956387
O       1.95241     15.26621      6.88370        -0.422044      0.105552      0.500827
O      13.39904      3.78363      7.04327        -0.150690     -0.290018      0.076152
O      13.46161      0.00351      7.04184        -0.242165     -0.234343      0.249980
O       1.82015      3.81074     11.51932         0.054445     -0.118862     -0.200365
O       1.77065     15.35453     11.36894        -0.076482     -0.092342      0.618680
O      13.36270      3.84200     11.27290        -0.496188     -0.820638      0.940214
O      13.30611     15.30372     11.34531         0.307588      0.423781      0.272437
O       1.88247      7.66531      2.78643        -0.225887     -0.451314     -0.029110
O       1.91147      7.70254     15.83557        -0.160604     -0.312349     -0.107042
O      13.35749      7.58231      2.63664        -0.168505      0.242134      0.491797
O      13.43754      7.63359     15.66795         0.170760      1.035339      0.857403
O       1.86910      7.62310      6.94450         0.433364     -0.791492      0.472308
O      13.49805      7.65276      7.10442        -0.777106     -0.285056      0.090322
O       2.04273      7.66805     11.34317        -0.236621     -0.233481      0.214593
O      13.41584      7.62494     11.29961        -0.276181      0.643366      0.335364
O       1.83034     11.42897      2.83863         0.306859     -0.134908     -0.578008
O       1.90855     11.57601     15.79917        -0.438571     -1.345990      0.192149
O      13.16421     11.46939      2.67676         0.681879     -0.341054      0.412312
O      13.56442     11.45850     15.68272        -0.425157      0.656298      1.052139
O       1.94467     11.53219      6.97211        -0.220859     -0.399631      0.424476
O      13.38988     11.45951      6.82531        -0.373664     -0.418948      0.320790
O       1.75001     11.53513     11.52850         0.578677     -0.245469     -0.406750
O      13.38697     11.44070     11.43054        -0.257847      0.158842      0.307976
O       5.62648      3.79947      2.65457         0.225841      0.890209      0.132413
O       5.78568      3.88423     15.85818         0.338218     -0.804294     -0.159192
O       5.61757     15.34478      2.66644         0.061403     -0.096346      0.035387
O       5.57165      0.05609     15.68378         0.392188     -0.672774     -0.168914
O       5.65669      3.76932      6.91459         0.248386      0.171266      0.715291
O       5.81455      0.02153      7.01134        -0.738700     -0.883529      0.338741
O       5.66766      3.73925     11.45376        -0.078722      0.688054     -0.454006
O       5.73804     15.31064     11.54423         0.012917     -0.399586      0.162626
O       5.53980      7.64572      2.68962         0.776464      0.203465      0.053943
O       5.84875      7.63694     15.55874        -0.536693      1.022528      1.183819
O       5.74074      7.63042      7.06323        -0.337517     -0.650688      0.104721
O       5.58680      7.65330     11.42710         0.569055     -0.135379     -0.521436
O       5.67075     11.44848      2.39460        -0.083031      0.741262      1.140385
O       5.59947     11.46308     15.85085         0.715854      0.213468     -0.060815
O       5.77659     11.48443      7.03446        -0.468159      0.359607      0.170101
O       5.76713     11.47186     11.31654        -0.523149      0.183940      0.725989
O       9.43913      3.88083      2.75288         0.356646     -0.629472      0.446354
O       9.73663      3.80260     15.49260        -0.370001      0.737830      0.309693
O       9.43918     15.33031      2.65837        -0.609205      0.906165      0.142660
O       9.58456     15.32186     15.70826        -0.033032     -0.150609      0.520662
O       9.63313      3.67771      7.12560        -0.358151      1.674593      0.170958
O       9.61092     15.34849      7.12307        -0.362087     -1.171474      0.395498
O       9.59950      3.77216     11.36824        -0.261966      0.339427      0.263433
O       9.50191     15.23743     11.35027        -0.422082      0.320213      0.083105
O       9.60272      7.60147      2.67031        -0.248452      0.842408      0.321441
O       9.54823      7.67011     15.78275         0.132279     -0.058345     -0.216829
O       9.42004      7.65868      6.88846         0.039399     -0.596601      0.796510
O       9.40804      7.70992     11.30477         0.063246     -1.419256      0.396668
O       9.49943     11.56359      2.70944         0.327534     -0.119085      0.074379
O       9.50097     11.46245     15.75043         0.658466      0.347956      0.381373
O       9.50414     11.50166      6.97171         0.361871     -0.659442     -0.005084
O       9.74957     11.44750     11.46634        -1.138671      0.805556     -0.165245
