  # total energy = -7879.31880989 
CRSYTAL
PRIMVEC
    15.6000000000000000    0.0000000000000000    0.0000000000000000
     0.0000000000000000   15.6000000000000000    0.0000000000000000
     0.0000000000000000    0.0000000000000000    17.640000000000000
PRESSURE
-2.59974 -2.23697 6.40101 -0.058628 0.339212 0.019264
PRIMCOORD
320 1
Pb       3.93561      3.86774      4.33581        -0.354138     -0.221496      0.186371
Pb       3.97880      3.96045     17.55442         0.028429     -0.467084      0.061493
Pb       3.75301     15.45575      4.33370         0.826028      0.751812      0.385401
Pb       3.81756     15.59779      0.02075         0.140915      0.396651      0.096711
Pb      15.52360      3.84009      4.31567         0.056392      0.188126      0.280009
Pb       0.05683      3.91655     17.54973        -0.208946     -0.373644     -0.413128
Pb      15.59564     15.56005      4.32547         0.157228      0.017925      0.444832
Pb      15.45571     15.57345     17.62604         0.868628      0.159693     -0.473803
Pb       3.83960      3.98618      8.72698        -0.000858     -0.603428      0.808326
Pb       3.88495     15.58241      8.74808         0.385079      0.213667      0.310911
Pb      15.56579      3.95966      8.80727         0.543610     -0.352185      0.378247
Pb      15.50034      0.03672      8.65277         0.510727      0.172532      0.574349
Pb       3.94026      3.83318     13.21928        -0.203106      0.439940      0.106454
Pb       3.93959      0.03178     13.14543        -0.137425     -0.278706     -0.266628
Pb       0.03666      3.97364     13.13152        -0.071126     -0.933418      1.093786
Pb      15.50030     15.53098     13.19183         0.180351      0.579850      0.017278
Pb       3.96283      7.74874      4.36705         0.087187      0.242317     -0.339428
Pb       3.99584      7.71701     17.51510        -0.648606      0.210447      0.817269
Pb       0.01735      7.63770      4.25624        -0.462854      0.874973      1.069504
Pb       0.07354      7.72505     17.47931        -0.528468      0.348633      0.202640
Pb       3.83860      7.74762      8.73116        -0.059676      0.866587      0.822827
Pb      15.53398      7.81655      8.73967         0.086424     -0.218451      0.407659
Pb       3.92806      7.75072     13.15844        -0.381215      0.207680     -0.031425
Pb       0.05558      7.71742     13.12964        -0.012501      0.869382      0.271628
Pb       3.89105     11.63440      4.30054         0.515422     -0.084633      0.368073
Pb       3.83227     11.69452     17.54284         0.052881     -0.304722      0.400711
Pb       0.04268     11.77785      4.30081        -0.206231     -0.564800      0.613865
Pb       0.01235     11.70857     17.47738         0.270887     -0.299019      0.254890
Pb       3.83155     11.79818      8.85282         0.275347     -0.632303     -0.137708
Pb      15.56593     11.71480      8.70691         0.295516     -0.105604      0.584502
Pb       3.87415     11.71901     13.14489         0.042746     -0.300556     -0.053625
Pb      15.49362     11.80749     13.15337         0.904536     -0.835357      0.098070
Pb       7.72194      3.73695      4.31499         0.555232      0.337844      0.452944
Pb       7.80202      3.94060     17.62393        -0.162453     -0.580306      0.045241
Pb       7.64687     15.51709      4.38118         0.374410      0.250923      0.473146
Pb       7.71055      0.02069     17.53094         0.471288     -0.059663      0.501355
Pb       7.64757      3.92901      8.79943         0.664414     -0.071318      0.275859
Pb       7.73239      0.06025      8.77645        -0.085992      0.024355     -0.295433
Pb       7.77882      3.90059     13.27399        -0.027569     -0.248624     -0.665242
Pb       7.81580      0.08423     13.07993        -0.082377      0.231494      0.370614
Pb       7.80549      7.66385      4.32590         0.163880     -0.004800      0.432157
Pb       7.77039      7.72860     17.51876         0.324385      0.356559      0.716226
Pb       7.71944      7.81384      8.77239         0.560335      0.095266      0.255016
Pb       7.82947      7.74931     13.19001        -0.355013      0.169713     -0.352190
Pb       7.74341     11.53462      4.28594         0.115870      0.694407      0.639983
Pb       7.79892     11.63636     17.40947        -0.143348     -0.095952      1.102934
Pb       7.76778     11.73752      8.61142         0.259304     -0.347651      0.885469
Pb       7.73066     11.77386     13.06540         0.144435     -0.711046      1.059568
Pb      11.76010      3.79452      4.24330        -0.064677      0.349364      0.618160
Pb      11.62444      3.81497     17.61723        -0.072096      0.031679     -0.046155
Pb      11.66537     15.52931      4.28573         0.286105      0.078093      0.967306
Pb      11.68610     15.55567     17.62509        -0.520425      0.024605     -0.475981
Pb      11.69618      3.89953      8.67245        -0.858753     -0.151558      1.658690
Pb      11.65962      0.00812      8.72557        -0.021438      0.482925      0.071820
Pb      11.72252      3.88634     13.10688        -0.246539      0.025544      0.661741
Pb      11.62426      0.04556     13.12109         0.486862     -0.326142      0.791076
Pb      11.63843      7.77503      4.34676        -0.048944      0.031492      0.038632
Pb      11.66088      7.74505     17.58469         0.171412      0.592981     -0.017356
Pb      11.68795      7.80421      8.73228        -0.092408     -0.378128      0.245430
Pb      11.65410      7.79362     13.07360         0.441747     -0.013377      0.993457
Pb      11.67170     11.48728      4.33846        -0.187670      0.878075      0.263774
Pb      11.59001     11.71807     17.56141         0.614415     -0.723714      0.574573
Pb      11.63105     11.78589      8.87767        -0.133526     -0.192409     -0.343248
Pb      11.64706     11.70716     13.23214        -0.012015     -0.324103      0.497197
Ti       1.92840      2.04436      2.39140         1.385980     -0.560869      1.276516
Ti       2.01611      1.91362     15.63472        -0.691339      0.848256      1.266628
Ti       2.02671     13.60577      2.40620        -0.414541      0.361344      0.497212
Ti       1.97652     13.73327     15.61170        -0.495337     -0.360987      1.336646
Ti      13.72210      1.87066      2.25848        -0.927148      0.913815      3.431028
Ti      13.66727      1.88264     15.69821        -0.383364      0.589258      1.256820
Ti      13.71972     13.62419      2.38759        -0.904981     -0.594517      2.189758
Ti      13.66127     13.56416     15.72546        -0.137992      0.716322      1.189498
Ti       2.01663      1.98538      6.73631        -0.344925     -0.046505      2.700350
Ti       1.96586     13.65521      6.82797         0.352052      0.042350      1.130002
Ti      13.67182      2.02772      6.85650        -0.786930     -0.487275      1.521831
Ti      13.65880     13.57890      6.86515        -0.400189      0.538561      0.531907
Ti       1.96350      1.87404     11.21235        -0.727726      0.617864      1.402321
Ti       1.93758     13.70396     11.26543         0.550303     -1.049034      0.510981
Ti      13.67842      1.90367     11.20848         0.927678     -0.232635      1.755253
Ti      13.63838     13.59570     11.28867         0.065169     -0.093847     -0.352712
Ti       1.85740      5.87712      2.32287         1.299357     -1.299314      1.635058
Ti       1.92197      5.80290     15.67359         0.678034     -0.138470     -0.563707
Ti      13.59574      5.86792      2.36670        -0.391853     -0.086115      1.772501
Ti      13.52355      5.77510     15.68107         0.880697      0.060964     -0.006713
Ti       1.95113      5.88806      6.82232        -0.640587     -0.604747      2.511495
Ti      13.60938      5.80287      6.83258        -0.013852      0.562906      2.139798
Ti       1.97436      5.73839     11.27391         0.367073      1.280637     -0.824136
Ti      13.68554      5.75122     11.25322        -0.412063      1.908891      0.009184
Ti       1.92175      9.67314      2.41024         0.505226      0.345848      0.367483
Ti       1.96391      9.72588     15.60208         0.209647     -0.157194      2.070755
Ti      13.69537      9.71764      2.35055        -0.459813     -0.297766      2.059358
Ti      13.70607      9.67870     15.54174        -1.261933     -0.073576      2.246122
Ti       1.92439      9.73960      6.79918         0.736061      0.695728      2.054429
Ti      13.67967      9.73147      6.71942        -0.482944     -0.083034      5.000052
Ti       1.93142      9.75605     11.21970         0.592933     -0.313837      1.326650
Ti      13.62754      9.75988     11.22069         1.002299     -0.617167      2.571920
Ti       5.86260      1.90507      2.36488        -0.512956     -0.032125      2.441103
Ti       5.81018      1.92056     15.54250         0.371173      0.748687      3.923883
Ti       5.90713     13.64329      2.36353        -0.184129     -0.120504      2.636504
Ti       5.76178     13.68044     15.59017         0.515627     -0.400503      1.204817
Ti       5.80043      2.00611      6.76232         0.483605     -1.309430      3.135311
Ti       5.86695     13.59977      6.83662         0.098784      0.658721      1.159292
Ti       5.77935      1.98640     11.16065         1.198776     -0.307130      1.327357
Ti       5.90056     13.67550     11.20243        -0.754517     -0.036869      0.353982
Ti       5.75884      5.81194      2.40077         0.816682     -0.334814      1.675890
Ti       5.83976      5.86877     15.67171        -0.067461     -1.195771     -0.361178
Ti       5.85075      5.83625      6.76486         0.113592     -0.099547      2.128735
Ti       5.83932      5.79947     11.21521         0.318462      0.119734      1.291580
Ti       5.87326      9.71775      2.35152        -0.662072      0.059699      0.786228
Ti       5.78533      9.76186     15.60315         0.437349     -0.458380      1.721098
Ti       5.86040      9.66575      6.80295        -0.643334      1.407171      1.513100
Ti       5.84407      9.73073     11.24409        -0.556639     -0.220292      1.248107
Ti       9.81766      1.87315      2.40143        -0.846757      0.881063      2.058026
Ti       9.72176      1.91899     15.64901        -0.166277     -0.409901      0.955729
Ti       9.77534     13.68001      2.48363        -0.463503     -0.636405      0.866244
Ti       9.68301     13.59134     15.65283         0.791915      0.795451      0.766369
Ti       9.68246      1.99619      6.83697         0.522096     -0.188863      2.765876
Ti       9.77952     13.70739      6.82292        -0.535490     -0.321691      1.380344
Ti       9.83503      1.95170     11.20726        -1.890644      0.317947     -0.221985
Ti       9.79680     13.63450     11.30106        -0.133925     -0.365591      0.396340
Ti       9.71396      5.77026      2.45151        -0.030042     -0.101910      1.137815
Ti       9.68530      5.81941     15.60489         0.489580     -0.394634      3.997117
Ti       9.70017      5.81582      6.82575         0.126023      0.109779      1.299363
Ti       9.76953      5.75981     11.21180        -0.933523      0.381270      0.558605
Ti       9.68224      9.70831      2.40059         0.788108     -0.296343      2.003006
Ti       9.73739      9.72190     15.59766         0.928311     -0.581572      2.349741
Ti       9.78903      9.73061      6.82665        -0.231714     -0.067654      1.154866
Ti       9.75378      9.76514     11.27784        -1.001699     -0.286219      2.932033
O       2.08790      1.88418      0.70813        -0.326055      0.046356     -1.066062
O       2.04047      1.89853     13.95681        -0.003226     -0.020190     -2.041831
O       2.00121     13.61773      0.69872        -0.106052      0.137398     -1.287874
O       1.92439     13.61750     13.93527         0.099131      0.486669     -1.842179
O      13.65522      1.85431      0.60062         0.129579     -0.192695     -2.283222
O      13.56269      1.76445     14.02030         0.017244      0.220596     -2.218944
O      13.81410     13.63353      0.70166        -0.149200      0.165286     -1.466645
O      13.72400     13.68104     14.04990        -0.192524     -0.128342     -2.128346
O       2.06818      2.08086      5.05370        -0.477550     -0.339985     -1.460001
O       1.93086     13.63799      5.11095         0.097143     -0.144284     -1.023814
O      13.59114      2.16389      5.18644         0.366271      0.006433     -2.032556
O      13.62650     13.60996      5.18151         0.128262      0.195788     -1.409715
O       1.90907      1.93408      9.54540         0.045246     -0.052829     -1.691309
O       1.99317     13.68537      9.57724         0.002032     -0.220554     -1.546508
O      13.77313      1.92094      9.55255        -0.194497     -0.055367     -1.878739
O      13.63946     13.52644      9.58264        -0.242010      0.047741     -1.632565
O       1.90557      5.87629      0.64292        -0.169864     -0.184654     -2.161933
O       2.01985      5.86111     13.95860        -0.293446     -0.319201     -1.055107
O      13.65827      5.97119      0.69366         0.080725     -0.105917     -1.742414
O      13.65036      5.73382     13.96956        -0.353156      0.034793     -0.778775
O       1.95897      5.67547      5.17605        -0.028912      0.354974     -2.003860
O      13.66704      5.70148      5.16444         0.108763      0.068529     -2.291951
O       1.92725      5.85847      9.52306         0.095198     -0.335667     -0.226657
O      13.65031      5.84441      9.54558         0.254717     -0.022675     -0.320206
O       2.00135      9.66421      0.71397        -0.354611      0.271426     -0.655544
O       2.08971      9.67340     13.95133        -0.111747      0.035191     -1.571273
O      13.68758      9.51742      0.69570        -0.003655      0.445013     -1.596054
O      13.62123      9.64891     13.87261         0.197436      0.287458     -1.779029
O       1.95715      9.69854      5.12455         0.082695      0.143291     -2.245093
O      13.68527      9.57805      5.11556        -0.206752      0.046324     -4.319657
O       2.02237      9.75523      9.51961        -0.423366      0.210605     -1.415856
O      13.72245      9.79289      9.55594        -0.168550     -0.030881     -1.824614
O       5.78946      1.79983      0.68830        -0.009732      0.081496     -1.660886
O       5.88613      2.04865     13.89713        -0.146819     -0.224200     -2.809647
O       5.91176     13.82146      0.71712        -0.227455     -0.132410     -2.501467
O       5.73460     13.53571     13.91748         0.227607      0.363804     -1.186864
O       5.94588      1.93491      5.10892        -0.097399      0.269591     -2.327149
O       5.76347     13.59847      5.15361         0.086027     -0.001021     -2.392229
O       5.74807      1.92174      9.47543         0.372971      0.199851     -1.459580
O       5.93789     13.69486      9.48153         0.025325     -0.114937     -0.097985
O       5.85496      5.81081      0.70324         0.036704     -0.107483     -1.419898
O       5.83113      5.74898     13.96273         0.244423      0.218164     -1.360828
O       5.75632      5.78638      5.08580        -0.097392      0.188709     -1.673438
O       5.81552      5.81850      9.50756        -0.030195      0.120159     -0.669453
O       5.91935      9.79730      0.66504         0.047122     -0.427694     -1.135072
O       5.75110      9.69258     13.92109         0.024956     -0.006575     -0.865804
O       5.74707      9.68287      5.10253         0.218650     -0.128239     -1.145691
O       5.91060      9.75427      9.55409        -0.032705     -0.252994     -1.623476
O       9.68357      1.90646      0.74793         0.308776     -0.190709     -2.584458
O       9.59976      1.87859     13.94167         0.444484      0.121388     -1.155982
O       9.78807     13.65503      0.79054        -0.033249     -0.101506     -1.607351
O       9.77940     13.54528     13.96746         0.105516      0.181525     -1.448777
O       9.63790      1.95350      5.18826         0.210405     -0.119984     -3.206988
O       9.82440     13.81235      5.14771        -0.023834     -0.262054     -1.764606
O       9.79791      1.94538      9.49035        -0.211840     -0.113551      0.095918
O       9.87076     13.52244      9.60274         0.043921      0.302553     -0.957882
O       9.75460      5.69098      0.76460        -0.204573      0.233031     -1.688863
O       9.59835      5.77227     13.97010         0.163139      0.106255     -3.213154
O       9.65960      5.87323      5.13624         0.266696     -0.001423     -1.297710
O       9.76511      5.79119      9.51505         0.009046      0.089460     -0.762722
O       9.80114      9.73048      0.73890        -0.231179      0.175394     -1.956464
O       9.68138      9.77027     13.93747         0.026838     -0.205107     -2.500295
O       9.66555      9.65222      5.13316         0.323897      0.215501     -1.892577
O       9.64500      9.78870      9.64137         0.366939     -0.076069     -2.515100
O       3.89092      1.86756      2.90342        -0.500974      0.474540     -0.330328
O       3.92568      2.01644     16.04560         0.749316     -0.556114      0.012522
O       3.89833     13.61886      2.78173         0.426462      0.231492      0.187880
O       3.86918     13.69572     16.02438         0.597481     -0.263534      0.318521
O      15.59139      1.94286      2.78521         0.047955     -0.199977     -0.039255
O      15.58824      1.88921     16.03408         0.425832      0.420208      0.443247
O      15.59864     13.62281      2.87404        -0.220410      0.060300     -0.059874
O       0.08015     13.70476     16.02694        -0.817640     -0.059358      0.689284
O       3.94317      1.97316      7.32780        -0.981611      0.121519     -0.866429
O       4.01613     13.65683      7.39462        -1.492516     -0.246654     -0.461896
O      15.57343      2.02692      7.29407         0.501275     -0.432912     -0.581040
O       0.04715     13.68624      7.24046        -0.552718      0.021247     -0.063883
O       3.88771      1.92114     11.60367        -0.012684      0.036978      0.478735
O       4.00027     13.65359     11.59221        -0.749155      0.197223      0.432756
O       0.01734      1.95130     11.69023        -1.036329     -0.294166      0.215868
O       0.00694     13.62085     11.57214        -0.067542     -0.267930      0.834565
O       3.88156      5.69365      2.82785        -0.502282      0.832216     -0.179401
O       3.95848      5.74621     16.02373        -0.560218      0.615965      0.563135
O       0.01115      5.78143      2.90861        -0.641388      0.261226     -0.685978
O      15.59111      5.72441     16.00007         0.002076      0.360060      0.518324
O       3.94628      5.87846      7.34231        -1.152506     -0.012251     -0.844735
O       0.00950      5.78428      7.33949         0.077824      0.477453     -0.581641
O       3.84032      5.80165     11.67850         0.960641     -0.496074     -0.005594
O       0.07158      5.86899     11.78777        -0.931928     -0.783101     -0.693437
O       3.94795      9.68126      2.78691        -0.870939     -0.255662      0.393407
O       3.91603      9.68241     16.25191        -0.239142      0.398923     -0.922054
O      15.58040      9.65373      2.82379         0.709226      0.443111     -0.065600
O      15.59922      9.70408     16.02902         0.794495     -0.008639     -0.122227
O       3.87484      9.82640      7.24130         0.318818     -0.497412      0.010251
O      15.58835      9.82085      7.21507         0.144343     -0.428430      0.063684
O       3.86650      9.73019     11.68756         0.701619     -0.107365      0.024156
O       0.05803      9.81316     11.73853        -1.018712     -0.162675     -0.217992
O       7.81726      1.94166      2.78320        -0.214163     -0.036302      0.110979
O       7.75998      1.90480     16.21609        -0.054972      0.332619     -0.840815
O       7.80572     13.59961      2.84990        -0.690828      0.302105      0.189690
O       7.82877     13.53675     16.05304        -0.748199      0.331280     -0.354626
O       7.75937      2.02015      7.32130        -0.449436     -0.176570     -0.075493
O       7.81661     13.69598      7.26876         0.400058     -0.126785     -0.171292
O       7.81584      1.96160     11.63630        -0.027364     -0.333728     -0.031565
O       7.79941     13.65431     11.69503         0.127920      0.032757     -0.269098
O       7.77902      5.74248      2.96431        -0.030304     -0.105698     -0.686650
O       7.77795      5.79886     16.17229         0.549291      0.319264     -0.407494
O       7.73961      5.86752      7.24424         0.232160     -0.008470     -0.029439
O       7.81350      5.66887     11.57235        -0.415983      0.600043      0.425289
O       7.76222      9.65084      2.90377        -0.194351      0.376763     -0.448278
O       7.85285      9.71999     16.08626        -0.992600     -0.147490     -0.294904
O       7.89587      9.66503      7.30694        -1.486030      0.347997     -0.247166
O       7.71533      9.75381     11.77027         1.092621     -0.257272     -0.110326
O      11.78624      1.92357      2.78784         0.074746     -0.445305     -0.252684
O      11.66246      1.93994     16.13692        -0.276099     -0.210355      0.036938
O      11.64635     13.61565      2.83061         1.442614      0.188489      0.155630
O      11.75944     13.62644     16.21587        -0.397772      0.037554     -0.383310
O      11.66770      2.02744      7.30643         0.278682     -0.446664     -0.286043
O      11.67755     13.62196      7.37159         0.646377      0.065234     -0.226634
O      11.71908      1.92161     11.55451         0.379943     -0.274301      0.595237
O      11.74600     13.55690     11.81113        -0.756029      0.704481     -0.251398
O      11.66027      5.88649      2.88550         0.751989      0.052275     -0.198069
O      11.66229      5.79591     16.12869        -0.241695     -0.085970     -0.305854
O      11.66714      5.77219      7.30918         0.052073      0.788806     -0.638809
O      11.68735      5.91061     11.75733         0.319885     -0.839026     -0.526213
O      11.65033      9.71973      2.89208         0.261600     -0.283429     -0.318455
O      11.64676      9.76132     16.02736         0.882415     -0.527603      0.177624
O      11.68924      9.63283      7.34156         0.732209      1.001467     -0.655573
O      11.69068      9.72322     11.80242        -0.118206      0.092385     -1.095669
O       1.90407      3.92407      2.73437        -0.042661     -0.546610      0.061448
O       2.08507      3.88219     16.06440        -0.934647     -0.078090      0.426019
O       1.90263     15.49977      2.91124        -0.158207      0.673505     -0.315485
O       2.01785      0.09099     16.08319        -0.081829     -1.575171      0.180426
O      13.66347      3.93004      2.69388        -0.017339     -0.598583      0.096115
O      13.59444      3.84481     16.15725         0.225789      0.483107      0.046863
O      13.69635     15.59930      2.93916         0.000689     -0.483688     -0.994033
O      13.62350      0.00415     16.11512         0.113650     -1.017317      0.643686
O       1.91827      3.82149      7.34517         0.442787      0.868740     -0.535747
O       2.02229     15.58413      7.28838        -0.364956      0.520247     -0.632574
O      13.59991      3.95899      7.46163         0.818271     -0.479913     -0.969777
O      13.54105      0.08958      7.19571         0.584706     -0.779098      0.279039
O       1.85985      3.83199     11.74082         0.766537      0.397729     -0.350664
O       1.91642     15.58663     11.61826         0.292075     -0.166650      0.665370
O      13.54894      3.89252     11.63632         0.676737     -0.587114      0.068422
O      13.70141     15.45380     11.60362        -0.444361      1.999363      0.542266
O       1.91961      7.70896      2.76830         0.262444      0.926042      0.443343
O       2.08678      7.70274     16.04451        -0.713931      0.742301      0.196254
O      13.62589      7.80669      2.89762         0.182575     -0.597958      0.012899
O      13.66030      7.81303     16.05231        -0.148139     -0.951056     -0.050326
O       1.88061      7.84759      7.22417         0.322130     -0.901733     -0.116186
O      13.62879      7.76466      7.28013         0.298346     -0.029561     -0.189941
O       2.02585      7.77903     11.57979        -0.619154     -0.206105      0.603233
O      13.77102      7.75327     11.63360        -0.625746      0.327631      0.102270
O       1.99644     11.71581      2.85877        -0.528984     -1.085449     -0.108591
O       1.91909     11.69769     16.00179         0.400691     -0.208269      0.303893
O      13.63945     11.68618      2.88975         0.178909      0.039812     -0.508938
O      13.67187     11.65113     16.09938         0.246562      0.224561     -0.194429
O       2.00168     11.77820      7.31786        -0.344038     -0.297298     -0.266435
O      13.75081     11.68297      7.13708        -0.680792      0.036222      0.254051
O       1.99797     11.69015     11.75405        -0.302576      0.663500     -0.325814
O      13.58495     11.69239     11.67057         0.317809     -0.739426      0.486504
O       5.81862      3.85087      2.98143         0.123001     -0.254335     -1.085236
O       5.87312      3.95231     16.04929         0.212479     -1.310079      0.401927
O       5.79072      0.05469      2.95516         0.335248     -1.229688     -0.500475
O       5.87436     15.58628     15.96897        -0.224860     -0.297276     -0.207149
O       5.80020      3.94999      7.32471         0.036774     -0.161607     -0.738582
O       5.82797     15.58975      7.17220         0.352220      0.780922      0.363860
O       5.86523      3.83712     11.68913        -0.507665      0.583028     -0.127987
O       5.85674      0.04124     11.69401         0.019141     -0.422536     -0.151777
O       5.83153      7.67664      2.82281        -0.120360      0.730970      0.095321
O       5.83198      7.75437     16.09240         0.426592      0.875434     -0.195492
O       5.79953      7.81506      7.25198         0.185529     -0.420621     -0.139385
O       5.88755      7.68882     11.73519        -0.086396      0.192952     -0.353141
O       5.75582     11.67012      2.70061         0.610091      0.057251      0.372143
O       5.79456     11.61931     16.09058         0.060612      1.041849     -0.245299
O       5.91012     11.69138      7.21341        -0.026892     -0.798541      0.024634
O       5.82200     11.61240     11.73566         0.069406      1.219137     -0.595166
O       9.92894      3.84959      2.79072        -0.907553     -0.319422      0.232780
O       9.69940      3.82332     16.08164         0.064155      0.706863      0.095890
O       9.74049      0.00975      2.92654         0.060627     -0.278802     -0.262443
O       9.77951     15.57496     16.01013        -0.112881     -0.617940      0.469802
O       9.74264      3.87610      7.29493        -0.505501      0.985253     -0.269774
O       9.69617      0.01586      7.31455         0.445378     -0.081389      0.103933
O       9.70263      3.85053     11.73435         1.026346     -0.022451     -0.146808
O       9.73968     15.54458     11.67778         0.306990      0.606504     -0.080515
O       9.64832      7.75431      2.77249         0.294717      0.192738      0.367883
O       9.76753      7.71053     16.14804        -0.385311      0.226791     -0.604987
O       9.76135      7.83234      7.26425         0.027014     -1.371326      0.375802
O       9.64479      7.74132     11.68022         0.383669      0.379596      0.010915
O       9.69914     11.69027      2.99010         0.086137     -0.495877     -0.428109
O       9.89108     11.61797     16.06829        -1.132123      1.128403     -0.051325
O       9.78939     11.68006      7.24823        -0.023720      0.291119     -0.086015
O       9.76432     11.73927     11.69240        -0.009201     -0.882405      0.286706
