  # total energy = -7877.38535005 
CRSYTAL
PRIMVEC
    15.3600000000000000    0.0000000000000000    0.0000000000000000
     0.0000000000000000   15.3600000000000000    0.0000000000000000
     0.0000000000000000    0.0000000000000000    17.440000000000000
PRESSURE
1.42472 1.34306 1.05322 0.078543 0.250892 -0.038837
PRIMCOORD
320 1
Pb       3.80430      3.81900      4.43676         0.038881     -0.224803     -0.608419
Pb       3.93172      3.73917     17.38035        -0.145470     -0.099584     -0.161175
Pb       3.77658     15.29653      4.40368         0.028207      0.475975      0.156082
Pb       3.83557     15.35829     17.38142        -0.251628     -0.019733     -0.353329
Pb       0.02368      3.79015      4.44459        -0.033666     -0.028213     -0.859298
Pb       0.16808      3.85942      0.07944        -0.645582     -0.079225     -0.602113
Pb       0.07343     15.28015      4.33267        -0.316874      0.265700     -0.109409
Pb      15.10581     15.26040      0.02831         0.455172      0.427964     -0.376949
Pb       3.71901      3.94337      8.64095         0.450427     -0.735442     -0.275481
Pb       3.83819      0.00018      8.83067        -0.147702      0.237780     -0.619760
Pb      15.06664      3.98303      8.65862         0.196963     -0.957588      0.294935
Pb      15.22681      0.16263      8.75627         0.315923      0.233172     -0.180737
Pb       3.84752      3.74088     12.93378         0.177257      0.355319     -0.395013
Pb       3.70693     15.24996     12.91213         0.212423      0.090962     -0.155509
Pb       0.02240      3.65929     13.14555        -0.599583      0.327721     -0.331972
Pb       0.03495     15.34396     12.96363        -0.712798      0.138087     -0.392866
Pb       3.90430      7.65860      4.29040        -0.129761     -0.235379     -0.220416
Pb       3.66769      7.59039      0.01052         0.177439      0.197670     -0.119885
Pb       0.21430      7.73223      4.32988        -0.710219      0.292329     -0.696862
Pb      15.24265      7.74308     17.36757         0.105391     -0.607743     -0.220528
Pb       3.94738      7.66490      8.75061        -0.208812     -0.167358     -0.845708
Pb      15.34431      7.63921      8.71404        -0.472372      0.353648     -0.351981
Pb       3.79307      7.59931     13.05237         0.113014     -0.632363     -0.799880
Pb       0.07226      7.65549     13.16153        -0.626197     -0.051754     -0.618079
Pb       3.63285     11.50401      4.31767         0.884896      0.183310     -0.095661
Pb       3.98876     11.34284     17.33220        -0.239445      0.797971     -0.233666
Pb       0.11237     11.66430      4.21627        -0.393850     -0.314073     -0.319438
Pb      15.21870     11.48876     17.30703         0.252669      0.292364     -0.188916
Pb       3.78864     11.58542      8.73273         0.028068      0.049763      0.024525
Pb      15.30571     11.35904      8.72988        -0.014513     -0.029110     -0.533289
Pb       3.93533     11.45703     12.97624        -0.389147      0.686595     -0.450539
Pb       0.16349     11.49139     13.16662        -0.287891      0.041090     -0.555280
Pb       7.71989      3.69366      4.42605         0.139220     -0.259817     -0.415454
Pb       7.62937      3.86791     17.36923         0.358370     -0.117971     -0.154904
Pb       7.71670     15.35102      4.40296         0.485742      0.288575     -0.542254
Pb       7.42082     15.31490     17.36598         0.390818      0.209455     -0.265286
Pb       7.65253      3.82819      8.71042         0.085206     -0.008320     -0.744912
Pb       7.66798     15.27028      8.60335         0.011934      0.160059      0.001556
Pb       7.83866      4.00668     13.26355        -0.291850     -0.314274     -0.764399
Pb       7.63089      0.18613     13.03023        -0.374350     -0.278940     -0.570953
Pb       7.59945      7.48016      4.26589         0.102926      0.641661      0.742427
Pb       7.57651      7.67005      0.00202         0.331927     -0.079130      0.057932
Pb       7.60452      7.85667      8.66768         0.215165     -0.761567     -0.575172
Pb       7.58751      7.62192     12.96790         0.709224     -0.056512     -0.515918
Pb       7.72383     11.37802      4.40324        -0.736063      0.480624     -0.520507
Pb       7.52829     11.62609     17.36401         0.522842      0.060512     -0.235748
Pb       7.67204     11.50331      8.69753         0.148680      0.318031     -0.400155
Pb       7.84196     11.60133     13.04621        -0.196223      0.191533     -0.367284
Pb      11.53939      3.75142      4.36285        -0.568536     -0.448010     -0.784102
Pb      11.60533      3.80699      0.09116        -0.448533      0.251561     -0.651852
Pb      11.58247     15.28856      4.31589        -0.605799      0.403918     -0.778217
Pb      11.36052     15.25226     17.33828         0.177811      0.144315     -0.032561
Pb      11.51613      4.06857      8.71538        -0.312012     -0.788533     -0.316395
Pb      11.45162     15.29417      8.65731        -0.038526      0.342691      0.007392
Pb      11.57051      3.68593     13.31606         0.139077      0.056909     -0.140119
Pb      11.45921     15.33368     13.06387         0.460668     -0.046692     -0.606659
Pb      11.54054      7.68620      4.21083        -0.095983     -0.061130     -0.250537
Pb      11.43563      7.58695      0.06266         0.362790      0.122206     -0.881200
Pb      11.55036      7.68948      8.68961         0.119025      0.340786     -0.464733
Pb      11.39213      7.67565     13.07275        -0.004650      0.104705     -0.072332
Pb      11.57132     11.37886      4.38247        -0.121903      0.198132     -0.465963
Pb      11.32730     11.47915     17.37169         0.435353     -0.009366     -0.418144
Pb      11.52871     11.53195      8.84350         0.182852     -0.489353     -0.876692
Pb      11.47037     11.43198     12.99742         0.593870      0.284282      0.066429
Ti       1.83257      1.85051      2.31864         0.391833      1.132972     -0.313032
Ti       1.81958      1.85047     15.43168         0.036464     -0.604824      3.528780
Ti       2.02866     13.52756      2.16736        -1.233705     -1.250824     -1.003833
Ti       1.96548     13.43115     15.42662        -0.773108      0.468033     -0.925446
Ti      13.33873      1.89681      2.21392        -0.075958     -0.368735      0.350917
Ti      13.37139      1.88951     15.47532         0.416335     -0.106064     -1.333464
Ti      13.38296     13.39372      2.27400         0.073947      0.177206     -0.030440
Ti      13.45200     13.37889     15.29748        -0.843974      0.597448      0.989141
Ti       1.80390      1.91266      6.71094         0.971281     -0.558003      0.821365
Ti       1.86474     13.44704      6.81431         0.401885      0.578538      0.382837
Ti      13.28510      1.81186      6.65044         0.792757      1.094770      0.318714
Ti      13.51953     13.37233      6.65769        -0.506104     -0.025305      0.400078
Ti       1.86228      1.94310     10.98952        -0.729719     -0.494528     -0.105628
Ti       1.82950     13.35477     10.94513         0.878441      0.922182      0.009816
Ti      13.28257      2.03060     11.03529         1.572772     -0.885771     -0.932866
Ti      13.43018     13.45258     10.91133        -0.111063      0.334644      2.686524
Ti       1.97280      5.76224      2.28931        -0.733755     -0.216210      1.605431
Ti       1.99044      5.66306     15.39401        -1.166424      0.404495      1.144214
Ti      13.46792      5.77391      2.32731         0.179656     -0.306375      0.065992
Ti      13.43535      5.71435     15.46716         0.157088     -0.074216      0.421420
Ti       1.84342      5.77281      6.65188         2.234498     -0.087538      0.261333
Ti      13.41574      5.74508      6.50308        -0.105261      0.623375     -0.039445
Ti       1.78752      5.68645     11.01655         0.693985     -0.509920      1.995006
Ti      13.37971      5.80596     11.14635         0.369278     -0.041247     -0.973478
Ti       1.94174      9.64815      2.18360        -0.706869     -0.492672      0.399982
Ti       2.06024      9.59542     15.36924        -1.174607      0.200134      1.021875
Ti      13.38109      9.61970      2.22952         0.858044     -0.437677      0.455761
Ti      13.47149      9.62166     15.30403        -1.547436     -0.509431      0.851898
Ti       1.94535      9.55155      6.75908        -0.770985      0.186176     -0.375402
Ti      13.44604      9.55427      6.63148        -0.244616     -0.076741      2.099158
Ti       1.96535      9.47206     11.03805        -0.897757      1.018200      0.683788
Ti      13.43937      9.59639     11.06424         0.428703     -0.408444      0.096971
Ti       5.64040      1.92385      2.33123         0.146097      0.404326     -0.292227
Ti       5.62075      2.02880     15.28006         0.832099     -1.159631     -1.277261
Ti       5.73437     13.54467      2.35137         0.574007     -1.082991     -0.874595
Ti       5.70384     13.50553     15.23141         0.028332      0.343121      0.868366
Ti       5.71025      1.83615      6.72277        -0.191498      0.326775      0.299289
Ti       5.76886     13.35598      6.69122         0.167971      0.731993      0.287009
Ti       5.75005      1.89126     10.99934        -0.348417      0.429299     -1.120826
Ti       5.82916     13.43304     11.01338        -0.642169      0.317842      1.583944
Ti       5.80315      5.75689      2.34031        -0.096161     -1.079943      0.604190
Ti       5.79805      5.82732     15.29492        -0.449286     -1.893639      0.868965
Ti       5.75355      5.68337      6.65754         0.019145      0.870537     -0.315578
Ti       5.71864      5.72611     10.93752         0.085374     -0.710502      3.087372
Ti       5.73357      9.68552      2.28219         0.521652      0.245670      1.109083
Ti       5.83892      9.49462     15.30717        -0.026296      1.109531      1.543602
Ti       5.65387      9.66690      6.68990         0.788249     -1.143490      0.249944
Ti       5.80065      9.60201     11.04374        -0.493791     -0.334117      0.035025
Ti       9.43705      1.93590      2.06050         1.378859     -1.077925      1.645984
Ti       9.43259      1.85727     15.38165         0.875984      1.137966      1.119152
Ti       9.54616     13.32390      2.28019        -0.160448      1.844732     -0.254828
Ti       9.54714     13.46238     15.30845         0.353669     -0.510604      0.763503
Ti       9.57920      1.91206      6.79184        -0.341212      0.498551     -0.920028
Ti       9.72069     13.33897      6.62637        -1.183323      1.101068      0.192375
Ti       9.56332      2.01341     10.91555         0.157963     -0.997849      0.595604
Ti       9.67596     13.45256     10.90437        -0.669914      0.772466      0.925397
Ti       9.59140      5.70345      2.40307         0.967495     -0.690383     -0.746953
Ti       9.58046      5.77049     15.41550         0.943970     -0.307620     -0.073183
Ti       9.61657      5.85397      6.57343        -1.734924     -1.110148      0.225988
Ti       9.60285      5.72673     11.01227        -0.148517      0.365105      0.747083
Ti       9.49160      9.57356      2.31472         0.464029     -0.131635      1.081632
Ti       9.54972      9.58671     15.41618         1.814150     -0.478375     -0.996117
Ti       9.54201      9.57958      6.59774         0.969952     -0.358743     -0.046999
Ti       9.53582      9.63097     11.01155         1.008557     -0.759003      1.185050
O       1.89911      1.87267      0.53881         0.194367      0.283013      0.165181
O       1.67400      1.90210     13.78938         0.152032     -0.095977     -4.367725
O       1.96616     13.44355      0.39826         0.219213      0.017086      0.296655
O       1.99231     13.42417     13.61768        -0.234677      0.068836     -0.800780
O      13.41349      1.80331      0.45113        -0.160927      0.247476     -0.548962
O      13.41389      1.92391     13.58023        -0.263640      0.209055      0.351708
O      13.36249     13.33186      0.52821         0.179532     -0.031164     -1.166201
O      13.31328     13.39664     13.60345         0.217801     -0.016444     -1.633125
O       1.83340      1.77226      4.98363         0.011369      0.251739     -2.105678
O       1.90492     13.54922      5.06269         0.063662     -0.353058     -1.880948
O      13.21276      1.82553      4.89493         0.346479      0.533340     -1.247445
O      13.55387     13.37917      4.90098        -0.327952     -0.166207     -1.134030
O       1.80117      1.90520      9.26372         0.087124      0.114433     -1.519535
O       1.96827     13.51789      9.17198        -0.695928     -0.360371     -0.111860
O      13.43466      2.07260      9.20897        -0.130457     -0.296139     -0.302654
O      13.42892     13.49290      9.20617         0.024218     -0.263845     -2.096018
O       1.92560      5.77373      0.57399         0.520135     -0.680658     -1.614921
O       1.96748      5.73423     13.69910        -0.146804      0.119362     -1.906520
O      13.41248      5.74863      0.56997        -0.269355     -0.194692     -1.101379
O      13.44231      5.63697     13.72946        -0.145986      0.390753     -1.060240
O       1.95574      5.85732      4.89133        -0.243091      0.110414     -0.940037
O      13.59536      5.69172      4.74878        -0.440267      0.143574     -0.330526
O       1.91454      5.65244      9.31527        -0.285510      0.241526     -1.934887
O      13.35557      5.83579      9.27705         0.356807     -0.037381      0.179676
O       1.88287      9.47329      0.46228         0.425639      1.029213     -1.720476
O       1.99572      9.56353     13.63519         0.261854     -0.080938     -1.584524
O      13.29784      9.59379      0.49726         0.479389      0.400516     -0.929236
O      13.48328      9.68146     13.56799        -0.238525     -0.198597     -0.944713
O       1.96595      9.43250      4.99610         0.307637      0.109565     -1.264777
O      13.43694      9.54837      4.94976         0.077144      0.177824     -2.692978
O       1.83336      9.54798      9.32822         0.022682     -0.338774     -1.424758
O      13.49724      9.47785      9.26182         0.133581     -0.103362     -0.471311
O       5.56483      1.92619      0.51087         0.314196      0.180298     -0.024981
O       5.71038      1.99065     13.48178         0.169051      0.041714     -0.136861
O       5.74517     13.63027      0.54122        -0.120730     -0.602344     -0.622366
O       5.71283     13.62984     13.50604         0.007192     -0.916791     -0.584208
O       5.71649      1.78731      4.95013        -0.033764      0.276829     -0.741246
O       5.76530     13.27696      4.95745        -0.294923      0.345556     -0.710930
O       5.82181      1.88807      9.17961        -0.119324     -0.322022      0.610072
O       5.87305     13.51796      9.31238        -0.310693     -0.307696     -2.341097
O       5.90160      5.71620      0.60880        -0.298562     -0.094062     -1.337409
O       5.83059      5.74112     13.56265         0.033533      0.304928     -0.898454
O       5.76471      5.78060      4.87108        -0.224405     -0.182672     -0.494275
O       5.74142      5.78233      9.26930         0.044304      0.204671     -3.541444
O       5.75704      9.58391      0.54883         0.208760      0.113053     -1.400572
O       5.82963      9.56101     13.60165        -0.217549     -0.295901     -1.592200
O       5.72476      9.83468      4.97361        -0.514804     -0.192274     -1.372353
O       5.81740      9.48007      9.30427        -0.118690      0.313891     -1.419670
O       9.51395      1.98250      0.30959        -0.118381      0.172430     -0.745395
O       9.62744      1.88983     13.61782        -0.304400     -0.101126     -1.142985
O       9.53634     13.29934      0.49546        -0.177683     -0.187495     -0.427640
O       9.64049     13.43446     13.57486        -0.448617      0.107464     -1.399652
O       9.57774      1.85298      5.02400         0.077284     -0.241527     -1.200732
O       9.70076     13.60697      4.86856        -0.240203     -0.468527     -0.240005
O       9.74424      2.17391      9.20596        -0.786894     -0.553269     -1.527105
O       9.76360     13.23373      9.15824        -0.252224      0.210173     -0.633855
O       9.65798      5.52541      0.63564        -0.330083      0.434575     -1.100818
O       9.59164      5.89816     13.62442        -0.267876     -0.486980     -0.561941
O       9.56377      5.88453      4.80219         0.314261     -0.063520     -0.119855
O       9.48523      5.66513      9.29395         0.497405      0.337555     -1.334760
O       9.50021      9.78621      0.61411        -0.045158     -0.372976     -1.804197
O       9.66835      9.48195     13.63437        -0.598860      0.494122     -0.661712
O       9.63418      9.53533      4.82389        -0.033771      0.081551     -0.355490
O       9.51858      9.64502      9.30401         0.122508      0.160044     -1.879187
O       3.77427      1.99043      2.72667        -0.317141     -0.314618      0.375164
O       3.80556      1.78453     15.65611        -0.472053      1.111954      0.672748
O       3.88023     13.45348      2.73285        -1.537152     -0.373274      0.450221
O       3.78564     13.47908     15.75032         2.502519     -0.108450      0.169504
O      15.29586      1.67359      2.59746        -0.082672      0.931049      0.505698
O      15.31076      1.90748     15.84655        -0.419474     -0.279050      0.472462
O       0.08930     13.37884      2.45518        -0.551959      0.384943      0.993491
O      15.35076     13.25923     15.60110        -0.791477      0.263168      0.689237
O       3.83615      1.78632      7.10048         0.194349     -0.009541      0.256178
O       3.82110     13.41124      7.15829         0.653935     -0.008365      0.019027
O      15.29919      2.01398      6.94550        -0.526627      0.125590      0.672802
O      15.33104     13.41835      7.00614        -0.078852      0.008757      0.864292
O       3.77941      1.83400     11.26541         0.107462      0.343354      0.571662
O       3.79283     13.46485     11.28456        -0.090055     -0.017830      0.547361
O      15.25238      1.92429     11.27655         0.682483      0.140778      1.068496
O      15.27840     13.40633     11.38608         1.071596     -0.311060      0.158985
O       3.91231      5.64035      2.75740        -0.764711      0.407806     -0.111898
O       3.88712      5.68102     15.66957        -0.070777      0.453950      0.673284
O       0.03793      5.78538      2.55112         0.750031     -0.003068      0.765575
O       0.02138      5.67909     15.82747        -0.258954      0.399853      0.310152
O       3.83483      5.81078      6.97318         0.237830     -0.060075      0.872946
O       0.03652      5.67656      6.92875        -1.098391      0.300285      0.399223
O       3.78478      5.67326     11.42005        -0.098564      0.584188      0.252341
O      15.31920      5.68087     11.46752         0.405802      0.348113      0.130112
O       3.87404      9.72958      2.55031        -0.428575     -0.337053      0.760519
O       3.93243      9.48239     15.81812        -0.225102      0.105999     -0.130996
O       0.06575      9.47779      2.57703         0.031854      0.546524      0.508851
O      15.34263      9.70339     15.57426         0.561262     -0.171219      0.827705
O       3.77354      9.62456      7.21222         1.093355      0.238249      0.235546
O       0.04671      9.48370      7.00656        -0.672749      0.063375      0.925086
O       3.90043      9.59581     11.32213        -1.184335     -0.446688      0.786696
O      15.34636      9.61435     11.43423         1.512015     -0.003729      0.445564
O       7.65262      1.90105      2.68745        -0.674257     -0.188656      0.120815
O       7.56697      2.01206     15.67456         0.528751     -0.417708      0.111370
O       7.53952     13.43927      2.64749         1.946013      0.382036      0.687908
O       7.63568     13.45365     15.72088        -1.131145      0.030047      0.086933
O       7.67917      1.90018      6.92929        -0.601934      0.079428      1.097437
O       7.74236     13.28800      7.00865        -0.011354      0.345964      0.396353
O       7.61474      1.87659     11.29547         1.089939      0.217135      0.487894
O       7.66876     13.45218     11.28745         1.319810     -0.247237      0.695574
O       7.75183      5.70017      2.77273        -1.522877      0.223187      0.084647
O       7.66921      5.72762     15.75151         0.026222      0.038062      0.319647
O       7.62561      5.78292      6.88246         0.549901     -0.144671      0.755498
O       7.72147      5.64487     11.41666        -0.522023      0.458305      0.429878
O       7.63408      9.50740      2.75578         0.562184      0.358708      0.082991
O       7.69667      9.58873     15.78738        -1.377162     -0.683663      0.279837
O       7.65821      9.58964      6.95474         0.024067      0.533051      0.639822
O       7.63797      9.64301     11.31617         0.982543     -0.076709      0.947809
O      11.39812      1.90717      2.52068         0.765886      0.085451      0.381477
O      11.51907      1.90783     15.63422        -1.075035     -0.219197      0.633581
O      11.44231     13.33360      2.55508         0.933088      0.004481      0.663440
O      11.40059     13.50467     15.62364         0.344064     -0.421856      0.857235
O      11.48435      1.92367      6.99628         0.662204     -0.024387      0.800144
O      11.53804     13.46818      7.07753         0.780178     -0.354903      0.008897
O      11.45137      1.96216     11.21884         0.161284     -0.406372      1.283102
O      11.55062     13.45567     11.33030        -0.360069     -0.380729      0.225248
O      11.51171      5.72511      2.71853         0.947885     -0.113112      0.547800
O      11.46515      5.72234     15.77389         0.401508     -0.065585      0.584752
O      11.44459      5.80059      6.91265         1.213755      0.159359      0.259040
O      11.53546      5.89823     11.36821        -0.801086     -0.254053      0.400475
O      11.53355      9.76314      2.65046        -0.358201     -0.858936      0.441733
O      11.50949      9.50524     15.69941        -0.596067      0.674051      0.549533
O      11.51554      9.54083      6.94812        -0.090086     -0.173681      0.657650
O      11.52046      9.60454     11.28465        -0.471987     -0.138253      0.551865
O       1.86149      3.76820      2.84253        -0.310649      0.506312     -0.190474
O       1.81395      3.78204     15.75953         0.904841      0.438346      0.603191
O       1.84762     15.34394      2.69109         1.095794     -0.480594      0.338508
O       1.91474     15.29831     15.76325        -0.562832      0.513356      0.316175
O      13.47232      3.78465      2.50885        -0.026454     -0.235569      0.812308
O      13.34822      3.78504     15.69760         0.174381      0.392010      0.807358
O      13.33914     15.28996      2.47214         0.026891     -0.167419      0.903264
O      13.33838     15.30994     15.72767         0.621571     -0.517776      0.517304
O       2.14001      3.80674      6.92142        -0.855676      0.914866      0.090477
O       1.88297      0.02493      6.97746        -0.322793     -0.468480      1.233736
O      13.39375      3.93331      6.94132        -0.175309     -0.578569      0.355661
O      13.48095     15.34823      6.80693        -0.216277     -0.402712      1.179784
O       1.82789      3.77309     11.50286         0.438311      0.588572      0.174731
O       1.78536      0.02659     11.32618         0.152406     -0.738173      0.572423
O      13.40613      3.89828     11.31876        -0.387434     -0.273306      0.772725
O      13.44357      0.02793     11.31755        -0.302317     -0.397449      0.236061
O       2.10854      7.72914      2.34785         0.203792     -1.157670      1.786326
O       1.87521      7.69957     15.73022         0.382013     -0.447017      0.350089
O      13.48623      7.67320      2.48677        -0.734695      0.556769      0.945058
O      13.38357      7.66247     15.87980         0.492987      0.135716     -0.393267
O       2.02810      7.65895      7.11132        -0.689954     -0.701158      0.516132
O      13.48149      7.61922      6.92998        -0.052022     -0.364769      0.681327
O       1.88325      7.58747     11.49350         0.260093      0.683526      0.057925
O      13.56907      7.66534     11.49916        -0.279610      0.194181      0.421353
O       1.94919     11.56983      2.61234         0.104091     -0.175358      0.304903
O       1.97666     11.54231     15.51703         0.423195     -1.967627      1.201300
O      13.55624     11.48399      2.64137        -0.029857      0.162213      0.688029
O      13.24474     11.50834     15.70125         0.551723     -0.092795      0.487727
O       1.81114     11.49242      6.93914         0.434473     -0.063434      0.979959
O      13.43942     11.45908      7.01775         0.161437      0.402707      0.568988
O       2.00687     11.52366     11.19476        -0.458826     -0.895990      0.916005
O      13.39849     11.45320     11.27169        -0.029609      1.105722      0.151631
O       5.78689      3.76985      2.67870         0.056373      0.763958      0.462558
O       5.78404      3.84791     15.62080        -0.523121      0.974224      0.868530
O       5.53509      0.04673      2.56267         0.760501     -0.089966      1.006262
O       5.78401      0.11409     15.53155         0.059648     -1.723132      0.927249
O       5.70369      3.81591      7.10241         0.085127      0.085170     -0.199397
O       5.94045     15.28326      7.02764        -0.668421     -0.382153      0.193866
O       5.65008      3.85767     11.26388         0.185013     -0.989351      0.426485
O       5.71857     15.32738     11.41579         0.096561      0.684275      0.126208
O       5.82482      7.65755      2.55893        -0.587950      0.131427      0.753814
O       5.84890      7.59305     15.81674        -0.306228      1.409512     -0.127310
O       5.77917      7.75189      6.89422        -0.564707     -0.338221      1.014160
O       5.75590      7.61590     11.31610         0.077737      0.603265      0.844472
O       5.85457     11.56232      2.65762        -0.469410     -0.848546     -0.093238
O       5.71665     11.49932     15.61649        -0.061448      0.060826      0.292188
O       5.77349     11.49963      7.21690        -0.330633      0.193758      0.413039
O       5.77166     11.50123     11.38344        -0.207114      0.153747      0.414874
O       9.57955      3.80339      2.68072        -0.097257     -0.792010      0.671533
O       9.55297      3.82147     15.57453        -0.128480      0.227587      0.277083
O       9.49356     15.34687      2.39746         0.159511     -0.082101      0.642593
O       9.48990     15.35418     15.70451        -0.070923     -0.083690      0.332253
O       9.56072      3.82334      6.92825         0.127452      1.548629      0.479140
O       9.64594     15.35793      7.12270        -0.251044     -1.026565      0.444549
O       9.69112      3.82405     11.26933        -0.388975      0.798390      1.292199
O       9.65791     15.32396     11.13333        -0.207768      0.521439      0.527407
O       9.70202      7.62450      2.48394        -0.176925      1.310726      0.578023
O       9.67239      7.65470     15.71865        -0.944874      0.003070      1.125648
O       9.54575      7.70879      7.07439         0.098856     -0.301948      0.280660
O       9.60217      7.74072     11.33577        -0.454183     -0.522217      0.418954
O       9.59198     11.50478      2.70439        -0.711385     -0.607203      0.711199
O       9.39444     11.47655     15.61025         0.748085      0.699203      0.531307
O       9.64578     11.46892      6.93634         0.217788     -0.022000      0.168957
O       9.61306     11.58889     11.41804        -0.187311     -0.987096      0.412351
