  # total energy = -7877.29868522 
CRSYTAL
PRIMVEC
    15.2000000000000000    0.0000000000000000    0.0000000000000000
     0.0000000000000000   15.2000000000000000    0.0000000000000000
     0.0000000000000000    0.0000000000000000    17.000000000000000
PRESSURE
7.68747 7.44294 2.3861 -0.137607 -0.011817 -0.057006
PRIMCOORD
320 1
Pb       3.67334      3.94415      4.39529         0.341033     -0.373191     -0.286761
Pb       3.74313      3.83723      0.06772         0.385850     -0.054395     -0.287293
Pb       3.71684      0.10723      4.32999         0.242981     -0.021996     -0.636194
Pb       3.98199     15.19268      0.07856        -0.649448     -0.612836     -0.181689
Pb      15.15009      4.01480      4.33897         0.154563     -0.656268     -0.705288
Pb      15.17435      3.81250     16.87419        -0.159976     -0.198993      0.096339
Pb       0.02153      0.13123      4.21559         0.067993     -0.426264     -0.012486
Pb       0.15659     15.18777     16.87547        -0.533177     -0.340617     -0.054430
Pb       3.84343      3.66711      8.50857        -0.454684      0.047452     -0.428703
Pb       3.79499     15.14725      8.34881        -0.093300      0.345953      0.657350
Pb      15.08913      3.74709      8.45375        -0.028558     -0.091668      0.390233
Pb      15.18497     15.18792      8.66970         0.039710     -0.123997     -0.530584
Pb       3.82403      3.73420     12.72215        -0.045709     -0.207505      0.041506
Pb       3.94383     15.03072     12.72691        -0.681548      0.595308      0.020842
Pb       0.18560      3.57743     12.83655        -1.107257      0.296553      0.240211
Pb       0.04548     14.99870     12.65711        -0.213673      0.135099      1.016888
Pb       3.67429      7.71258      4.36895         0.122010     -0.123269     -0.744844
Pb       3.83922      7.73702      0.21847        -0.167682     -0.217148      0.027262
Pb      15.13706      7.71495      4.22016        -0.043923      0.063727     -0.190108
Pb       0.14461      7.63447      0.00069        -0.035440      0.189351     -0.244407
Pb       3.73431      7.47539      8.50212        -0.259669      0.408244     -0.278610
Pb      15.02723      7.59720      8.54017         0.269665      0.369859      0.239969
Pb       3.72415      7.51768     12.75865         0.332383     -0.237858     -0.637047
Pb      15.12424      7.40960     12.78043        -0.128629      0.086306     -0.629237
Pb       3.59084     11.67698      4.35389         0.434560     -0.879038     -0.631498
Pb       3.92744     11.44665     16.94045        -0.386217      0.008390      0.517569
Pb      14.95091     11.60120      4.36295         0.178207     -0.551864      0.035333
Pb       0.04139     11.44883     16.85993         0.177005     -0.183398     -0.082262
Pb       3.70956     11.44304      8.39099        -0.131835     -0.448722      0.440616
Pb      15.05079     11.28446      8.65562         0.394672     -0.094782     -0.474313
Pb       3.70457     11.23918     12.75103         0.271355      0.272372     -0.446013
Pb      15.11530     11.31650     12.56554         1.056299     -0.048647      1.039404
Pb       7.67197      3.83126      4.12846        -0.104663     -0.483209      0.377375
Pb       7.67603      3.87253      0.09011        -0.367610     -0.253168     -0.051355
Pb       7.55242      0.03056      4.17352        -0.059229      0.064429      0.183964
Pb       7.56753     15.12688      0.08786         0.110904      0.232956     -0.496123
Pb       7.77276      3.79418      8.21966        -0.470407     -0.296289      0.566642
Pb       7.50624     15.15054      8.45653         0.076604      0.089575     -0.724181
Pb       7.46732      3.68632     12.65061         0.442012      0.603021      0.199302
Pb       7.56535      0.09007     12.69577         0.206563     -0.494639      0.331071
Pb       7.61981      7.61469      4.36109         0.120617     -0.194663     -0.616151
Pb       7.56519      7.52992      0.03233         0.078942      0.350034      0.332329
Pb       7.61428      7.58498      8.44733         0.076105      0.085408     -0.410941
Pb       7.59610      7.48687     12.71382        -0.448160      0.129328     -0.050316
Pb       7.53990     11.37082      4.13274         0.601803      0.454548      0.580730
Pb       7.58402     11.41617      0.10275         0.180506     -0.133074     -0.242255
Pb       7.46054     11.41026      8.30868         0.743581     -0.161943      0.883898
Pb       7.51063     11.37537     12.70767         0.544187     -0.573836      0.200774
Pb      11.50335      3.88097      4.03401        -0.666111     -0.701839      0.713974
Pb      11.50550      3.85186     16.96608        -0.357644     -0.510764     -0.143658
Pb      11.47167      0.04282      4.20408        -0.268213     -0.408690     -0.655006
Pb      11.36571     15.13428     16.93447         0.329751     -0.190987      0.010528
Pb      11.38955      3.65339      8.39545         0.186784      0.190423      0.692219
Pb      11.20770     15.09383      8.72973         0.754725      0.256321     -0.507859
Pb      11.40623      3.72808     12.69741         0.073761      0.393579      0.493837
Pb      11.25849      0.07265     12.88463         1.333561     -0.272828      0.038450
Pb      11.51275      7.55796      4.11676        -0.187351      0.667723      0.076141
Pb      11.39868      7.62490     16.96241        -0.368530      0.214397      0.233132
Pb      11.40142      7.61211      8.42142         0.168744      0.038328      0.184272
Pb      11.28953      7.48295     12.69082         0.339034     -0.352697     -0.100457
Pb      11.44757     11.54721      4.18354         0.052695     -0.508428      0.247267
Pb      11.46008     11.22753     16.96455        -0.237553      0.717238     -0.491601
Pb      11.18580     11.45254      8.63517         0.607009     -0.396592     -0.278929
Pb      11.27240     11.08787     12.93606        -0.152472      0.865725     -0.192628
Ti       1.86072      1.92625      2.14894        -0.001947     -0.654020     -0.125500
Ti       1.98298      1.85817     15.00278        -0.445012     -1.012492     -0.595460
Ti       1.80523     13.31843      2.19444         0.909719      0.152718     -0.420808
Ti       2.02093     13.28550     14.95147        -0.398953     -0.692105      1.073458
Ti      13.33822      1.79955      2.06049        -0.347169      0.878021     -0.311949
Ti      13.30033      1.81383     15.05618         0.423680     -0.237328     -1.964905
Ti      13.36961     13.31631      2.02837        -0.460296     -0.725550      0.545629
Ti      13.33037     13.22691     14.88114        -0.264074     -0.214762     -0.024457
Ti       1.85671      1.90857      6.47270        -0.341226      0.009300     -0.097709
Ti       1.84943     13.29278      6.50481        -0.696811      0.151106      0.836634
Ti      13.27814      1.81781      6.34366         0.321582      0.299353      0.877064
Ti      13.33022     13.30273      6.77918        -0.564755     -0.547070     -0.321606
Ti       1.94830      1.77547     10.78883         0.981079     -0.022048     -0.797971
Ti       1.97198     13.21668     10.67084        -0.512486     -0.249935     -0.990605
Ti      13.34983      1.83588     10.91405        -1.292944      0.133238     -0.504704
Ti      13.24381     13.21320     10.83789        -0.161965      0.672402     -0.198523
Ti       1.88174      5.64114      2.22106        -0.037241      1.328236     -0.737214
Ti       1.86996      5.67729     15.02754        -0.105499      0.265921     -0.855546
Ti      13.30929      5.71248      2.09755         0.809842     -0.088825      0.891870
Ti      13.17769      5.75498     14.99322         0.661247     -1.536630     -1.801117
Ti       1.76449      5.71117      6.62600         1.020859     -0.560250     -0.319945
Ti      13.22285      5.67275      6.39846        -0.115936      0.468001      0.005319
Ti       1.83646      5.57879     10.70748        -0.422639      0.878509     -0.219607
Ti      13.23298      5.56433     10.70361        -0.342132      0.224822      1.541081
Ti       1.89172      9.55358      2.18821         0.321464     -0.300760      0.081983
Ti       1.96780      9.46189     14.87294        -1.504953      0.728332      1.232086
Ti      13.38184      9.52679      2.03547        -1.149837     -0.485636      1.300047
Ti      13.34252      9.38808     14.92409         0.506931      1.553320      0.310247
Ti       1.89952      9.43942      6.52998        -1.275610      1.130029      1.931079
Ti      13.28586      9.49533      6.50430        -0.011647      0.363458     -0.349425
Ti       1.85750      9.35657     10.71940        -0.140505      1.984642     -1.066153
Ti      13.18366      9.43369     10.83905         0.819620     -1.331866     -1.588595
Ti       5.59543      1.93682      2.21107         0.734806     -0.231384      0.968696
Ti       5.67894      1.90399     15.04467         0.821926     -0.608665      0.549311
Ti       5.66850     13.32526      2.36028        -0.318815     -0.114021      0.388842
Ti       5.86052     13.26731     14.89547        -2.309879     -0.242470      1.074097
Ti       5.68828      1.95175      6.43027         1.110102     -1.554786     -1.313384
Ti       5.70233     13.27257      6.43418         0.247517      1.319609     -0.574583
Ti       5.72104      1.83305     10.60242        -1.389622     -0.422896     -0.581549
Ti       5.71775     13.20792     10.74493        -0.300316     -0.041286     -1.492423
Ti       5.68786      5.73490      2.37309         0.172124      0.159277     -0.116657
Ti       5.63458      5.68734     15.12209         0.626124     -0.428114     -0.988501
Ti       5.69376      5.74235      6.39167        -0.418871     -0.781038      0.681159
Ti       5.63810      5.59332     10.57038         0.368388      0.614841      1.020425
Ti       5.69323      9.58063      2.39304        -0.647461     -0.897500     -0.428718
Ti       5.65133      9.41866     14.95661         0.306068      1.107712     -0.615702
Ti       5.71853      9.52549      6.39611        -0.434154     -0.930924     -0.753701
Ti       5.62064      9.40418     10.56799         0.350926      0.466605      2.482301
Ti       9.44519      1.87413      2.18071         0.938110     -0.058238      1.045317
Ti       9.47208      1.84703     15.02704        -0.345880      0.164185      1.327264
Ti       9.56961     13.29928      2.23463        -0.305713      0.596554     -0.509320
Ti       9.52083     13.26094     15.00246         0.244130     -0.851583     -0.484987
Ti       9.61470      1.82016      6.29367        -1.925053      0.122299      1.000925
Ti       9.57162     13.26972      6.45322         0.213870     -0.066024     -0.568117
Ti       9.48031      1.89267     10.67982         1.206199     -0.006237      0.477907
Ti       9.46734     13.28203     10.83813         0.691492     -0.243736      0.504558
Ti       9.54479      5.71995      2.18152        -0.329378      0.203161      1.543231
Ti       9.43962      5.64153     14.93968         0.072187      0.087927     -0.244706
Ti       9.53489      5.69180      6.36635        -0.024427     -0.245729     -0.948864
Ti       9.37918      5.70476     10.65002         1.192985     -1.195859      0.317978
Ti       9.57950      9.55834      2.21414        -0.350335     -0.752990     -0.756404
Ti       9.39390      9.41300     15.03725         0.848597      0.999572     -0.482298
Ti       9.50784      9.47345      6.35416        -0.150621      0.464943      0.497766
Ti       9.34927      9.47430     10.67231        -0.028566      0.113957      0.539052
O       1.86940      1.73676      0.34227         0.371851      0.992705      0.584366
O       2.04187      1.84176     13.17794        -0.164399      0.189348      0.346939
O       1.73247     13.26846      0.37535         0.526408      0.211538      1.237654
O       1.99625     13.37175     13.21036         0.127126     -0.495227     -0.770139
O      13.45572      1.86124      0.23758        -0.688500     -0.023483      0.913056
O      13.31287      1.86233     13.17775        -0.104165     -0.201099      0.966416
O      13.40851     13.24740      0.29739        -0.257498      0.134846      0.253400
O      13.17917     13.20105     13.07546         0.833797     -0.349801      0.118068
O       1.78781      1.89294      4.65462         0.118082      0.247173      0.688356
O       1.85392     13.29650      4.70451        -0.264093     -0.148460      0.107701
O      13.45799      1.84185      4.56542        -0.576169      0.090766      0.509313
O      13.15857     13.09228      5.00188         0.380894      0.738090     -1.059465
O       1.87636      1.88918      8.96223        -0.044678     -0.148006      0.618684
O       1.81296     13.39989      8.84584         0.922035     -0.387192      0.891402
O      13.11194      1.97996      9.12299         0.786258     -0.187148      0.126766
O      13.28038     13.08754      9.00588         0.179490      0.645467     -0.018651
O       1.86466      5.57712      0.39721         0.308754      0.362107      0.222385
O       1.80573      5.63055     13.17821         0.401221      0.433019      1.138270
O      13.21409      5.70139      0.32784         0.107686     -0.080001     -0.494451
O      13.10669      5.73812     13.13572         0.532001      0.237285      1.456916
O       1.86401      5.53266      4.80399        -0.569433      0.697583     -0.077916
O      13.31820      5.75181      4.55954        -0.092211     -0.210547      1.157619
O       1.81976      5.62872      8.89572         0.484444     -0.077905      0.470410
O      13.18483      5.56994      8.97917         0.084633     -0.023363     -1.548572
O       1.89657      9.47303      0.38168         0.132102     -0.293117      0.913922
O       1.92749      9.35749     13.11910         0.238536      0.211608     -0.523337
O      13.36908      9.31843      0.28686        -0.043415      0.358879      0.028632
O      13.31349      9.34371     13.09498        -0.362284      0.376411      0.173246
O       1.79915      9.39781      4.79910         0.088375      0.079424     -1.293533
O      13.31976      9.27660      4.70030         0.059162      0.777355      0.456825
O       1.85602      9.47315      8.90673         0.265445     -0.148370      0.595418
O      13.25355      9.37729      8.93445        -0.289377      0.251083      1.380991
O       5.54508      1.76899      0.42113         0.640098      0.577360      0.054059
O       5.58473      1.91725     13.27823         0.321335     -0.013155     -0.783132
O       5.63896     13.23773      0.59821         0.303304     -0.235202     -0.752206
O       5.74194     13.28605     13.13771         0.146972     -0.090607     -1.217985
O       5.68039      1.79767      4.60123        -0.132096      0.160073      0.799796
O       5.71480     13.35110      4.63484        -0.376223     -0.076656      0.701172
O       5.60061      1.82718      8.81563         0.483376      0.180015      0.171921
O       5.68542     13.26856      8.85340         0.172477     -0.045872      1.221902
O       5.67634      5.75402      0.55365         0.054741     -0.162430      0.157856
O       5.72312      5.72387     13.30904        -0.271378     -0.233997      0.694371
O       5.65322      5.73654      4.63219         0.198373     -0.401804     -0.169565
O       5.69099      5.64626      8.81163        -0.198310     -0.098236     -0.098864
O       5.45038      9.52202      0.56846         0.640949     -0.037245     -0.095491
O       5.53904      9.48137     13.13123         0.498734     -0.506778      1.782127
O       5.73158      9.40358      4.55983         0.180650      0.398600      1.391235
O       5.73025      9.54710      8.85477        -0.209499     -0.264517     -1.312203
O       9.45401      1.76754      0.43528        -0.279240      0.400674     -0.793464
O       9.60432      1.77978     13.28835        -0.920815      0.296162     -0.704899
O       9.59146     13.23578      0.42353        -0.576594      0.122943      0.834033
O       9.42654     13.20816     13.17552         0.387290      0.128570      0.510319
O       9.50933      1.76923      4.53808         0.355231      0.235113      0.282400
O       9.76807     13.41209      4.64049        -0.452299     -0.496765      1.156217
O       9.64590      1.89329      8.89872        -0.478202     -0.354300      0.453746
O       9.56352     13.29420      9.04992        -0.537390      0.196583     -0.216183
O       9.51416      5.66226      0.43517        -0.226652     -0.079640     -0.962023
O       9.41856      5.64093     13.14454        -0.251080      0.122417      0.525154
O       9.59023      5.56081      4.55833        -0.063571      0.760806      1.154371
O       9.29086      5.74502      8.86937         0.443131     -0.062760     -0.120762
O       9.55515      9.54034      0.35707        -0.202295     -0.124682      1.162150
O       9.41674      9.50514     13.19645         0.360242     -0.136830      0.414656
O       9.37774      9.49647      4.58357         0.214260     -0.078844     -0.361245
O       9.41563      9.42085      8.88933        -0.056081     -0.302101      0.469766
O       3.76402      1.87971      2.61189        -1.018403      0.191712     -0.170829
O       3.83065      1.86089     15.38910        -0.729962      0.506177      0.177426
O       3.71863     13.36685      2.76666        -0.484721     -0.160331     -0.497367
O       3.91560     13.14971     15.36713        -1.212416      0.081000     -0.589206
O       0.01128      1.81746      2.44402        -0.672961      0.612528      0.213907
O      15.18289      1.79557     15.21517         1.314967      0.173749      0.117497
O      15.18660     13.27319      2.75947        -0.645907     -0.337833     -0.602535
O      15.17110     13.32000     15.32609         1.040637     -0.240427     -0.647387
O       3.80965      1.91840      6.82409        -1.382846     -0.252426     -0.289553
O       3.76200     13.39250      6.82799         0.444627     -0.706114     -0.520916
O      15.10179      2.02799      6.89801         0.104558     -0.709490     -0.398208
O       0.03074     13.22540      6.98238        -0.770736      0.460327     -0.256549
O       3.82829      1.93554     11.05976        -0.207569      0.075084      0.056769
O       3.84014     13.16641     11.08093         0.973774     -0.471061     -0.027960
O       0.10657      1.65510     11.21460        -0.394847      0.782368     -0.491161
O       0.12042     13.33725     10.96918        -1.176934     -0.232431      0.581482
O       3.78624      5.65476      2.72625         0.048313      0.125508     -0.446700
O       3.79665      5.63842     15.40030        -0.749450     -0.465438     -0.092400
O      15.19535      5.69508      2.47478        -0.404077      0.035705      0.328391
O      15.13786      5.69006     15.29187         0.622824      0.557753      0.005904
O       3.71103      5.69383      6.77252         0.943638      0.042851      0.287827
O      15.04829      5.68767      6.89799         0.738342     -0.432816     -0.354244
O       3.75223      5.57378     11.14738         0.558713      0.443916     -0.664450
O      15.13604      5.69404     11.01082         0.531761      0.177454      0.240983
O       3.75642      9.39802      2.67343        -0.378787      0.196495     -0.014746
O       3.79301      9.78408     15.21513         0.597686     -1.028170      0.117003
O      15.12610      9.47561      2.58103         1.712403     -0.168013     -0.095843
O       0.01926      9.30178     15.30638        -0.163211      0.016149     -0.367937
O       3.77712      9.46002      6.83443         0.761605     -0.222893     -0.146314
O      15.14732      9.48601      6.93666         0.745704     -0.123787     -0.286541
O       3.76498      9.54459     11.02609         0.855915     -0.244884     -0.099195
O      15.19831      9.42898     11.12108        -0.992690     -0.516026     -0.134418
O       7.56463      1.85636      2.54590        -0.192542      0.196282     -0.227757
O       7.55907      1.69668     15.19683         0.371581      0.059176      0.628324
O       7.59339     13.25282      2.59736         0.469946      0.319626     -0.119682
O       7.60947     13.34035     15.29919         1.084731     -0.092117      0.708829
O       7.66758      1.94136      6.74416        -0.041699     -0.517696     -0.007784
O       7.56964     13.21562      6.80674         0.634979      0.394818     -0.216256
O       7.56026      1.72873     10.96202         0.641600      0.097417      0.313864
O       7.62418     13.46314     11.10974        -0.709864     -0.264613     -0.158958
O       7.68052      5.63383      2.69041        -0.720485      0.120212     -0.636229
O       7.61016      5.79019     15.34520        -0.834956      0.250958      0.646636
O       7.62926      5.60711      6.73173        -0.913885     -0.126987     -0.329366
O       7.53656      5.54545     11.06297        -1.058095      0.583549      0.097991
O       7.57347      9.75402      2.39182         0.858269     -0.738247      0.224518
O       7.58560      9.31181     15.26481        -1.526375     -0.011635      0.393828
O       7.59343      9.56146      6.80673        -0.774607     -0.150494     -0.291735
O       7.52572      9.39180     11.19112         0.220356     -0.324947     -0.703772
O      11.46325      1.78479      2.34717        -0.270683      0.010267      0.448198
O      11.39108      1.78500     15.27796        -0.333868      0.403206      0.641846
O      11.47625     13.33989      2.53153        -0.089262     -0.109602      0.027775
O      11.38380     13.24349     15.36061        -0.017777     -0.483656     -0.241130
O      11.38332      1.80062      6.72590         0.869203     -0.037009     -0.081860
O      11.41117     13.20941      7.10409        -0.748791      0.385410     -0.451079
O      11.39054      1.96508     11.22511        -0.288855     -0.724148     -0.493439
O      11.43726     13.24793     11.07135        -1.054457     -0.543974     -0.124743
O      11.47520      5.69179      2.52204        -1.031798      0.209226     -0.047258
O      11.30545      5.52220     15.25654         0.494937      0.311752      0.427954
O      11.37177      5.77934      6.76683         0.074420      0.489615      0.094373
O      11.26224      5.60273     10.98791        -0.022320     -0.569532      0.142831
O      11.43760      9.51645      2.48542        -0.347284     -0.057060     -0.089379
O      11.47642      9.47796     15.40047        -0.845104      0.508720     -0.716517
O      11.32287      9.39529      6.71594         0.497790     -0.092724      0.295745
O      11.33457      9.54550     11.14397        -0.581448     -0.120456     -0.236650
O       1.78208      3.82380      2.55078         0.520586     -1.208932      0.269809
O       1.82498      3.74562     15.32164         0.396296      0.362420     -0.008304
O       1.72496      0.01308      2.59460         0.949034     -0.079850     -0.214147
O       1.99627     15.13263     15.32104        -0.069047      0.595481     -0.023987
O      13.17001      3.79794      2.53776         1.410449     -0.454997     -1.004651
O      13.31645      3.78392     15.31120        -0.213932     -0.047284      0.179742
O      13.33249     15.11855      2.47500         0.296362      0.811233      0.130706
O      13.28732     15.03445     15.17005        -0.371894      1.935205      0.528452
O       1.78541      3.78416      6.81858         0.361099      0.026060      0.380828
O       1.80643      0.03923      6.77090        -0.050573      0.062196      0.161371
O      13.09593      3.79765      6.81126         0.731541     -0.324538     -0.653915
O      13.28298      0.00636      6.91475         0.280882      0.285282     -0.049384
O       1.83059      3.78198     11.14252         0.087925     -1.077204     -0.265814
O       2.15711     15.05545     11.04800        -0.574539      1.535686      0.119906
O      13.31899      3.71189     11.31450         0.636204      0.581504     -0.668777
O      13.34166     15.12118     11.10108        -0.211032      0.051290     -0.167897
O       1.95998      7.55980      2.55918        -0.623737      0.180979      0.059483
O       1.98539      7.61885     15.32783         0.336202     -1.132452      0.005628
O      13.23380      7.60271      2.54567         0.487472      0.012244     -0.495123
O      13.14480      7.58977     15.28347         0.249472     -1.264542      0.052714
O       1.86954      7.58752      7.02278        -0.279944     -0.482289     -0.671870
O      13.36492      7.60349      6.87535        -0.847462     -1.139014     -0.047813
O       1.90146      7.60543     11.05798         0.446315     -2.753945      0.283930
O      13.07729      7.46203     10.99716         0.504776      1.099914      0.281016
O       1.94116     11.40632      2.45852        -0.176836     -0.051424      0.588500
O       1.71891     11.33551     15.31706         0.631034      0.370102     -0.715291
O      13.24495     11.36891      2.57137         0.464953      0.775393     -0.237774
O      13.38244     11.32777     15.38724        -0.367023     -0.513852     -0.790179
O       1.89406     11.42580      6.93009         0.290392     -0.633025     -0.724565
O      13.33214     11.36329      6.89288        -0.249793     -0.909058      0.207216
O       1.85802     11.32854     11.12840         0.140298      0.419280     -0.122211
O      13.42416     11.29465     11.08797        -0.693655      0.353436     -0.298151
O       5.70266      3.78271      2.63880        -0.033295      0.302037     -0.342660
O       5.82535      3.75264     15.54773        -0.441253      0.721583     -0.417418
O       5.56878     15.17013      2.46792         0.597361      1.034770      0.600651
O       5.62386     15.06794     15.40384         0.188957      1.154231     -0.076527
O       5.61889      3.73209      6.71324         0.214404      1.998370      0.305748
O       5.72921     15.19504      6.73580         0.067778     -0.376288      0.501023
O       5.65321      3.68361     10.99159         0.415338      1.137235      0.267749
O       5.63415     15.17291     10.98841        -0.064381     -0.508380      0.332179
O       5.89874      7.61069      2.70720        -0.634199     -0.169667     -0.645653
O       5.57418      7.58489     15.59505        -0.021156      0.683404     -0.960060
O       5.75650      7.59028      6.62439        -0.081226      0.021785      0.714689
O       5.64372      7.53023     10.92368        -0.117367     -0.638996      0.061633
O       5.64616     11.42295      2.79846        -0.780031      0.001554     -0.414823
O       5.83637     11.40790     15.45983         0.209400     -1.303471     -0.491466
O       5.63203     11.36796      6.68786        -0.312335      0.450340      0.228655
O       5.88077     11.32037     11.06990        -0.645812      0.793266     -0.565642
O       9.60386      3.79332      2.59783        -0.314198     -0.763521     -0.620356
O       9.29053      3.77526     15.45771         0.657429     -0.612638     -0.624490
O       9.45225      0.02385      2.67421         0.357953     -0.955241     -0.756088
O       9.48081     15.10780     15.53917         0.114482      0.522586     -0.860460
O       9.62385      3.76691      6.72908        -0.331065     -0.182133     -0.126807
O       9.52960     15.07635      6.93538        -0.266876      1.175841     -0.355064
O       9.32230      3.66872     11.11307         0.253693      0.838930     -0.217380
O       9.68461      0.00137     11.26853        -1.226727     -0.086517     -1.211602
O       9.52561      7.58546      2.43873        -0.258839      0.968068      0.339538
O       9.61736      7.60303     15.34865        -0.187267     -1.513465     -0.069053
O       9.29069      7.57627      6.70722         0.445430      0.117809      0.015458
O       9.45338      7.53006     11.10002        -0.286718      0.527733     -0.330579
O       9.50133     11.45082      2.61710         0.503520     -0.250217     -0.114293
O       9.40224     11.30762     15.37905         0.296113      0.860103     -0.114419
O       9.50875     11.38611      6.87088         0.001985     -0.081691     -0.275688
O       9.33896     11.34368     10.95545         0.234711      0.380031      0.483479
