  # total energy = -7879.74409097 
CRSYTAL
PRIMVEC
    15.2000000000000000    0.0000000000000000    0.0000000000000000
     0.0000000000000000   15.2000000000000000    0.0000000000000000
     0.0000000000000000    0.0000000000000000    17.000000000000000
PRESSURE
7.83469 7.72728 1.53724 0.20849 0.10415 0.033239
PRIMCOORD
320 1
Pb       3.82357      3.79180      4.22609         0.104600      0.240458     -0.195797
Pb       3.62109      3.74033      0.06161         0.542197      0.401781     -0.258427
Pb       3.83342     15.09110      4.30268         0.070838     -0.023588     -0.570565
Pb       3.80868     15.18375      0.02939        -0.137151     -0.206652      0.180653
Pb      15.11514      3.82665      4.26910        -0.004684     -0.358653     -0.679898
Pb      15.11473      3.72825     16.98465        -0.070943      0.159997     -0.055110
Pb      15.19489     15.12635      4.12860         0.241884      0.460125      0.355142
Pb       0.00511      0.03369     16.94568        -0.424382     -0.060586     -0.357823
Pb       3.66590      3.67282      8.55953         0.158151      0.686246     -0.817014
Pb       3.72978      0.07909      8.33615         0.299390     -0.461845     -0.228969
Pb      15.04632      3.82338      8.37752        -0.302517      0.111745      0.440255
Pb       0.14981      0.02220      8.59498        -0.736013     -0.351112     -0.553178
Pb       3.76261      3.81264     12.84557        -0.111818      0.070280     -0.261459
Pb       3.80020     15.08319     12.62332        -0.072261      0.612756      0.513453
Pb       0.04003      3.57558     12.81355        -0.076975      0.269518     -0.417656
Pb      15.15093     15.08958     12.61441         0.306663      0.495256      0.366217
Pb       3.71469      7.58846      4.20031         0.427936      0.009810      0.245546
Pb       3.83916      7.53073      0.12068         0.170508     -0.089277     -1.008570
Pb       0.01992      7.47503      4.18463        -0.502389      0.179080     -0.368414
Pb       0.17349      7.65018      0.08366        -1.009096     -0.569185      0.090326
Pb       3.70080      7.53971      8.54624         0.226295     -0.190958     -0.644982
Pb       0.01227      7.62961      8.52260        -0.685501     -0.631110      0.213257
Pb       3.83340      7.70969     12.80216        -0.059480     -0.144210      0.087886
Pb      15.15925      7.67699     12.74513        -0.057268     -0.991980      0.811129
Pb       3.84356     11.39522      4.21736        -0.241389     -0.062744     -0.225731
Pb       3.69845     11.37926     16.87168         0.650826     -0.230511      0.676468
Pb      15.15026     11.32292      4.24531         0.512517      0.443385     -0.295295
Pb       0.00115     11.42035      0.02670        -0.241599     -0.042805     -0.000821
Pb       3.81176     11.31828      8.37908        -0.019261      0.346457     -0.155767
Pb      15.13599     11.33253      8.48684        -0.049387      0.694139      0.151853
Pb       3.84507     11.37657     12.70569         0.173523     -0.131923      0.028250
Pb       0.00587     11.51263     12.53416         0.379016     -0.419496      1.124639
Pb       7.63326      3.79093      4.21388        -0.172557      0.267107     -0.090075
Pb       7.58446      3.77540     16.92876         0.076661     -0.222135      0.909860
Pb       7.60367      0.11284      4.25872        -0.412572     -0.524967     -0.164863
Pb       7.51666      0.03355     16.99969         0.367549     -0.349867     -0.172789
Pb       7.52249      3.87588      8.46368        -0.052513      0.049737     -0.302587
Pb       7.53163     15.18640      8.44527         0.248238     -0.187496     -0.317122
Pb       7.54028      3.67758     12.66464         0.021487      0.344363      0.167543
Pb       7.68025      0.08463     12.66235        -0.312505     -0.415654      0.448842
Pb       7.46988      7.65518      4.40778         0.130455     -0.560874     -0.299019
Pb       7.54716      7.44216     16.92823        -0.075984      0.695024      0.738070
Pb       7.63514      7.54077      8.58834        -0.090615     -0.127377     -0.657320
Pb       7.76188      7.53284     12.84740        -0.535585      0.171539     -0.789317
Pb       7.67444     11.43016      4.13347        -0.408751      0.051494      0.694201
Pb       7.65225     11.30994     16.96845        -0.557105      0.312277      0.245688
Pb       7.56830     11.28306      8.35748        -0.153794      0.493565      0.057307
Pb       7.60050     11.27722     12.77599        -0.259156      0.234546      0.027000
Pb      11.46142      3.64763      4.29159        -0.470505      0.582228     -0.464517
Pb      11.44711      3.90949     16.99809        -0.212384     -0.893008      0.078423
Pb      11.30328      0.01808      4.26288         0.483918     -0.049590     -0.041423
Pb      11.30114     15.16916     16.92854         0.601281      0.256372     -0.253350
Pb      11.30086      3.74509      8.48510         0.486366      0.027103     -0.147380
Pb      11.34794     15.14245      8.60244        -0.021061     -0.001180     -0.330129
Pb      11.45862      3.80760     12.74172        -0.046031     -0.144588     -0.118032
Pb      11.34156     15.16913     12.84864        -0.074864     -0.164390     -0.076375
Pb      11.38137      7.59593      4.31997        -0.202962     -0.096112     -0.855371
Pb      11.33555      7.53928      0.05383         0.175075      0.101014      0.130613
Pb      11.39514      7.64142      8.33936        -0.044838     -0.273600      0.084448
Pb      11.33736      7.51427     12.62162         0.200557      0.078576      0.906394
Pb      11.43577     11.51126      4.24079        -0.155160     -0.445773     -0.309075
Pb      11.30274     11.29289      0.12131         0.298232      0.166398     -0.442141
Pb      11.34278     11.35094      8.53521         0.102186      0.392292     -0.446071
Pb      11.49320     11.37766     13.00140        -0.357351      0.260642     -0.246840
Ti       1.87547      1.92243      2.25790        -0.624402     -0.149684     -0.111351
Ti       1.92608      1.86451     15.05636        -1.295949      0.104476     -1.374025
Ti       1.99025     13.28408      2.11889         0.164605     -0.004756     -0.033261
Ti       1.96120     13.24508     14.93930        -1.510467      1.137145     -0.114601
Ti      13.23641      1.89904      2.24267         0.513735     -0.144191     -0.775315
Ti      13.25308      1.90989     14.93529        -0.268688     -0.999832      0.210312
Ti      13.39196     13.33049      2.19417        -0.521553      0.239026     -1.115846
Ti      13.37586     13.17956     15.06147        -1.104901      1.393667      0.366928
Ti       1.75516      1.92337      6.33683         1.000998     -0.568520      0.376260
Ti       1.84242     13.26254      6.46165         0.398969      0.119105      1.001272
Ti      13.23341      1.83242      6.50590        -0.601348      0.006096      0.509300
Ti      13.28217     13.30248      6.44294         0.310139      0.327318      1.184019
Ti       1.91772      1.90651     10.70533        -1.427242     -0.079589      1.066583
Ti       1.97651     13.24686     10.64269        -1.223822      0.262003     -0.663793
Ti      13.20668      1.88416     10.72514         0.972399      0.325101     -0.640635
Ti      13.19566     13.29303     10.79625         0.138026      0.170934     -1.050034
Ti       1.88597      5.64335      2.22443        -0.910070     -0.161728      0.664136
Ti       1.86042      5.66661     15.01887         0.397679      0.025963      0.320430
Ti      13.22013      5.68176      2.20388        -0.400290      0.382216      0.389814
Ti      13.31592      5.75718     14.94509         0.254947     -0.390601     -0.141469
Ti       1.78346      5.67818      6.41607         1.343954      0.026286      0.338834
Ti      13.23495      5.69233      6.36126        -0.190512     -0.371060      1.085411
Ti       1.87864      5.72501     10.70623        -0.665008     -0.700611      0.150268
Ti      13.28454      5.72191     10.75689         0.822027     -0.913885     -1.838819
Ti       1.82130      9.45308      2.30378         1.172152      1.122117      0.633104
Ti       1.81849      9.45943     15.03042         0.737779      0.140368     -0.947279
Ti      13.24693      9.50908      2.29792        -0.238522     -0.459734      0.574764
Ti      13.24851      9.43875     15.09781         0.021359      0.045542     -0.648768
Ti       1.75272      9.45340      6.48052         1.755962      1.006500     -1.584442
Ti      13.31531      9.48634      6.37649        -1.244573      0.620747     -0.420756
Ti       1.88216      9.40900     10.72068         0.229949      0.891946      0.618876
Ti      13.23933      9.48429     10.81194         0.749281      0.201900     -0.610367
Ti       5.65746      1.88274      2.14026         0.088401      0.186184      0.853291
Ti       5.64256      1.89326     15.00922         0.320129     -0.905126     -0.592191
Ti       5.80779     13.25769      2.23539        -1.203954      0.732535     -0.472588
Ti       5.65271     13.31726     15.02051         1.062083     -0.563517     -0.136295
Ti       5.62578      1.96937      6.34420         0.323674     -0.344660      0.650756
Ti       5.67631     13.32333      6.42945         0.318121     -0.421154     -0.238020
Ti       5.59101      1.92921     10.64733         1.432666      0.513573     -0.337564
Ti       5.71996     13.29307     10.67847         0.660425      0.101679     -0.663002
Ti       5.69082      5.69344      2.23498        -0.138277     -0.334704     -1.482280
Ti       5.74676      5.60035     14.95558        -1.820856      0.616201      0.309233
Ti       5.62384      5.72083      6.58807         0.094934     -0.366408     -0.754094
Ti       5.63761      5.76664     10.85304         0.265197     -1.390892     -0.764026
Ti       5.67789      9.46798      2.25123        -0.452610      0.597619     -0.718027
Ti       5.73329      9.50148     15.01698        -0.815087     -0.004761     -0.804883
Ti       5.60972      9.41670      6.44869        -0.279051      0.810148     -0.455020
Ti       5.68368      9.46744     10.66882         1.172744      0.760899      0.065785
Ti       9.45677      1.87605      2.22969         0.581652      1.113503     -1.727146
Ti       9.43575      1.89879     14.96988         1.318752     -0.294780      0.022576
Ti       9.55710     13.31260      2.25622        -0.195444      0.081578     -0.426433
Ti       9.47004     13.26231     15.07128         0.322491      0.534111     -1.571419
Ti       9.42107      1.91736      6.50483         0.835013     -0.431172      0.706438
Ti       9.50800     13.27851      6.46696        -0.304862      0.619376     -0.119145
Ti       9.43710      1.93444     10.69011         0.600722     -1.545426      0.017365
Ti       9.43529     13.24897     10.85132         1.215310      0.488743     -1.321959
Ti       9.40671      5.68167      2.26200         1.018792     -0.132447      0.686352
Ti       9.52905      5.64916     15.00014        -0.336939      0.093629     -1.715534
Ti       9.53217      5.67944      6.39034        -1.953223      0.113354     -0.949671
Ti       9.49247      5.67672     10.76416        -0.616141     -0.717414     -0.139232
Ti       9.41455      9.41168      2.31804         0.882649     -0.235069     -0.553236
Ti       9.44046      9.43273     14.99189         1.210120      1.304953      0.195310
Ti       9.43535      9.49511      6.37296         0.447516     -0.670121     -0.344743
Ti       9.51602      9.50098     10.70905        -1.154833      0.353236     -1.066829
O       1.76841      2.03594      0.43063         0.137026     -0.348337      0.151965
O       1.93995      2.02639     13.23772        -0.127998     -0.457310      0.078925
O       2.07173     13.29638      0.30113        -0.699206     -0.150329      0.984500
O       1.93453     13.35893     13.14529         0.138170     -0.382402     -0.090001
O      13.34923      1.94711      0.44258        -0.230321     -0.079891     -0.002924
O      13.18794      1.85535     13.13000         0.301810      0.417228      0.141919
O      13.39541     13.23764      0.37535        -0.139122      0.290965      0.488618
O      13.29044     13.13372     13.25386        -0.003692      0.001809     -0.793360
O       1.73978      1.82431      4.58972         0.580311      0.395334     -0.439413
O       1.88408     13.30969      4.72629         0.109545     -0.059976     -1.467547
O      13.16223      1.87379      4.73040         0.080321      0.022452     -0.560929
O      13.27296     13.41828      4.69369         0.166053     -0.618269     -0.731780
O       1.91556      1.79887      8.91971        -0.030830      0.421442     -0.257595
O       1.98759     13.32991      8.82307        -0.061982      0.039125      1.257187
O      13.28397      1.90909      8.91161         0.288763     -0.080058      0.182419
O      13.08489     13.31187      9.03170         0.405912     -0.249059     -0.705379
O       1.86647      5.61581      0.46852         0.205571      0.231098     -0.930185
O       1.82040      5.66282     13.27419         0.148862      0.223483     -0.969067
O      13.18257      5.75118      0.42608         0.106705     -0.200453     -0.193637
O      13.17834      5.71453     13.12149         0.139297      0.116403      0.449687
O       1.84507      5.68367      4.63034         0.018991      0.252743      0.210145
O      13.17349      5.59996      4.61198         0.240062      0.219127     -0.208360
O       1.88270      5.68108      8.90702         0.156381      0.292790      0.216284
O      13.33680      5.78813      8.86602        -0.362236     -0.197706      1.132817
O       1.84894      9.41276      0.55389         0.420091      0.339005     -1.752998
O       1.78838      9.35599     13.23175         0.293756      0.065520      0.342984
O      13.26053      9.55747      0.54493        -0.186921     -0.172233     -0.841662
O      13.27084      9.55752     13.27824         0.141103     -0.293265     -0.242120
O       1.81090      9.54028      4.60401        -0.176072     -0.326339      1.189410
O      13.33404      9.62655      4.57680         0.100073     -0.107966      0.564973
O       1.84323      9.42622      8.97263        -0.023783      0.090936     -1.120308
O      13.43025      9.49351      9.04804        -0.634439     -0.337737     -0.431134
O       5.62251      1.92304      0.37436         0.321980     -0.314462     -0.451383
O       5.69403      1.87565     13.19230        -0.265801     -0.102380      0.756209
O       5.70950     13.23750      0.43740         0.097146      0.161913      0.050525
O       5.59954     13.38724     13.25438        -0.102560      0.038984     -0.945284
O       5.76891      1.91328      4.56767        -0.349842      0.196340     -0.117104
O       5.64182     13.42853      4.62897         0.290207     -0.532600      0.397273
O       5.50038      2.14569      8.84936         0.556716     -0.673444      0.211326
O       5.79090     13.22535      8.88328        -0.267742      0.068863      0.379833
O       5.79154      5.70502      0.34314        -0.677527      0.101743      1.560022
O       5.66941      5.54691     13.14139         0.204774      0.831019      1.162164
O       5.60535      5.74621      4.80710         0.213139     -0.006188     -1.157384
O       5.70495      5.67439      9.01469        -0.250104      0.052053      0.049563
O       5.75785      9.58118      0.42123        -0.339596     -0.371971      0.473354
O       5.79012      9.42905     13.18364        -0.018867      0.094886      0.177336
O       5.52349      9.49397      4.64644         0.194571     -0.445157      0.071003
O       5.76520      9.50517      8.87356        -0.399941      0.030672     -0.100465
O       9.55264      1.94541      0.43106        -0.150567     -0.366599      0.084675
O       9.38887      1.82858     13.16819         0.428797      0.313657      0.156268
O       9.50681     13.33553      0.46599        -0.103929     -0.023657     -0.426088
O       9.57875     13.29105     13.20000        -0.383598     -0.346313      0.819130
O       9.44836      2.00730      4.73186         0.115239     -0.284929     -1.180781
O       9.56933     13.35781      4.66856        -0.133752     -0.411883     -0.244314
O       9.40876      1.84236      8.90909        -0.087199      0.128401     -0.320597
O       9.58848     13.31063      9.00599        -0.416698     -0.072078     -0.101566
O       9.40892      5.81879      0.46383         0.085076     -0.164318     -0.770805
O       9.52550      5.61053     13.11352        -0.010245      0.551999      1.301950
O       9.43816      5.58888      4.56583         0.002177      0.188337      1.148918
O       9.45017      5.65673      8.97607        -0.077377      0.202207      0.104723
O       9.43007      9.37942      0.46009         0.113767      0.365969      1.055011
O       9.42843      9.54075     13.20513         0.013923     -0.114239     -0.889438
O       9.63543      9.55604      4.57930        -0.734959     -0.016146      0.622859
O       9.53689      9.46351      8.85899        -0.207449     -0.035702      0.773087
O       3.78317      1.99770      2.42077        -0.525281      0.047658      0.554628
O       3.75239      1.88941     15.39216         1.091628      0.001094      0.060711
O       3.88564     13.28209      2.57301        -0.875375      0.304024      0.144402
O       3.75256     13.27266     15.35011         0.844430     -0.182913     -0.061749
O      15.11456      2.01730      2.63865         1.007773     -0.443742     -0.093499
O      15.16865      2.00321     15.28375        -0.075709     -0.284336      0.152693
O       0.08288     13.33350      2.45820         0.330305     -0.121637      0.236359
O       0.01049     13.31507     15.28401         0.156080     -0.084561      0.405631
O       3.74855      1.87397      6.66136        -0.600278      0.598702      0.206821
O       3.80293     13.27830      6.75446        -0.221480     -0.289834      0.298031
O      15.13273      1.93971      6.70864         0.054783     -0.083588      0.636889
O       0.02309     13.29302      6.86280        -1.539107      0.044746      0.172855
O       3.80375      1.96633     11.00778        -1.538563      0.297449      0.366648
O       3.78662     13.25790     11.11270         0.316172     -0.095247     -0.282282
O      15.18487      1.81086     11.11769         0.261497      0.006414     -0.002796
O       0.03166     13.37097     10.94942         0.092010     -0.215295      0.339792
O       3.75293      5.72491      2.59140         0.756675     -0.001352     -0.102818
O       3.76399      5.56574     15.35023         1.250848      0.640815     -0.011684
O      15.11218      5.62848      2.57900         0.879728      0.480068      0.176482
O      15.16171      5.85720     15.31012         0.090551     -0.661212      0.127432
O       3.73965      5.72933      6.78906        -0.637091     -0.180460      0.574901
O      15.11072      5.61494      6.71405         0.229280      0.633979      0.051184
O       3.73583      5.60500     11.22179         0.352898      0.096994     -0.413883
O      15.16593      5.96099     10.89957         0.673677      0.037328      0.681770
O       3.79283      9.52925      2.59457         0.184076     -0.448202     -0.110569
O       3.81134      9.62649     15.18690        -0.705642     -0.187785      0.502197
O      15.18243      9.43103      2.54640        -0.337263      0.568807      0.422305
O      15.15889      9.42106     15.52319         0.259335      0.228682     -0.369770
O       3.69719      9.58320      6.82849        -0.115076     -0.528936      0.121207
O      15.13783      9.50241      6.93581         0.027768     -0.444776     -0.321990
O       3.86744      9.55851     11.07285        -1.177294      0.147072      0.268797
O       0.01817      9.19641     11.15500        -0.298864      1.136480     -0.870259
O       7.57721      1.98398      2.36263         0.134160     -0.271268      0.820779
O       7.60661      1.80021     15.33215        -1.019870      0.268547      0.203087
O       7.62351     13.37608      2.69148         0.668631      0.031716     -0.221789
O       7.57912     13.39744     15.29315         0.593183     -0.097623      0.368174
O       7.57003      1.87929      6.71560        -0.602036     -0.205964      0.580730
O       7.60478     13.34936      6.81176        -0.149597     -0.010700      0.084392
O       7.54782      1.83222     11.00633        -0.382808     -0.098708      0.061765
O       7.61152     13.48739     11.07967        -1.782702     -0.290238      0.032145
O       7.51064      5.76752      2.54873         0.683732     -0.366064      0.427807
O       7.60511      5.68121     15.37117        -0.414509      0.141611     -0.694908
O       7.58251      5.77682      6.85787         0.138945     -0.515281      0.258749
O       7.57336      5.74640     11.19547         0.152124      0.129121     -0.343829
O       7.54429      9.50164      2.72306         0.745814     -0.139129     -0.103752
O       7.62047      9.55433     15.33731        -0.760406     -0.269597      0.072624
O       7.47195      9.40175      6.56394         2.039332      0.181777      0.522267
O       7.63848      9.31667     10.96380        -0.678186      0.324136      0.601091
O      11.36726      1.92651      2.60160         0.392259     -0.538280      0.262155
O      11.40733      1.95344     15.31206        -0.620692      0.212839      0.036080
O      11.45093     13.35676      2.49941        -0.215439     -0.149556      0.364299
O      11.40855     13.32436     15.31040        -0.408866     -0.452184      0.400225
O      11.34968      1.85508      6.95845        -0.027219      0.400012     -0.333306
O      11.36212     13.20969      6.77233         0.640432     -0.226584      0.309380
O      11.36558      1.97677     10.93319        -0.149179      0.020559      0.411007
O      11.36047     13.19921     11.09343         0.412600     -0.556839      0.771099
O      11.32433      5.77697      2.48287         0.639376     -0.047756      0.149997
O      11.31907      5.72287     15.32060         0.658342      0.216977      0.212299
O      11.32783      5.64150      6.75559         1.164748      0.658924      0.303714
O      11.39328      5.54849     11.03614        -0.552845      0.195233      0.149690
O      11.37321      9.53714      2.62277         0.039172      0.084033     -0.296883
O      11.37934      9.50619     15.34555        -0.554580      0.009157      0.323624
O      11.37682      9.43843      6.76984         0.475803      0.331158      0.073533
O      11.35882      9.64696     11.02984         0.380824      0.109340      0.386693
O       1.85805      3.83657      2.64657         0.294959     -0.852513      0.170455
O       1.93897      3.78372     15.34769        -0.687810      0.267091      0.271288
O       1.95620      0.03848      2.44494        -0.212350     -0.369534      0.195631
O       1.86027     15.19085     15.31718         0.134091      0.043428      0.210479
O      13.26859      3.79553      2.56087        -0.545787      0.117054      0.178166
O      13.25610      3.87848     15.31668         0.025758     -0.185698     -0.041569
O      13.42838      0.00222      2.59666        -0.751166      0.211168     -0.280122
O      13.23195      0.00554     15.27928         0.555352      0.045466      0.281630
O       1.81457      3.82610      6.71739         0.335268     -0.647128      0.304166
O       1.82104      0.01828      6.78418         0.276829      0.215140      0.274473
O      13.19996      3.78839      6.78734         0.106809      0.278701      0.206403
O      13.27974     15.15861      6.77663        -0.066004     -0.065725      0.527229
O       1.72360      3.81304     11.04982         0.410554     -0.100933     -0.111238
O       1.82455      0.00370     11.11566         1.105061     -0.260621     -0.545737
O      13.41752      3.77484     11.06323        -0.184644      0.809515      0.116102
O      13.21342     15.18813     11.04265         0.009287     -0.160846      0.498181
O       1.86042      7.54579      2.53498        -0.021100      0.252845      0.372194
O       1.92999      7.60883     15.47121         0.514200     -0.030710      0.023059
O      13.30589      7.58156      2.72697        -0.201080      0.497579     -0.366639
O      13.22762      7.56736     15.43096        -0.246995      0.656457     -0.136607
O       1.86489      7.61783      6.85377        -0.277919     -0.589316     -0.140539
O      13.26777      7.64065      6.60401         0.058337     -1.214527      0.474767
O       2.15820      7.61633     11.00643        -0.284321     -1.094999      0.355404
O      13.08373      7.59215     11.10848         0.061413      0.348198      0.034642
O       1.99631     11.42189      2.47166        -0.624969     -0.133475      0.244302
O       1.75702     11.41083     15.25816         0.401090     -0.973137      0.383222
O      13.36832     11.51402      2.60332        -0.158654     -1.457450      0.237248
O      13.23230     11.33118     15.44474         0.375323      0.292822      0.039619
O       1.72903     11.35501      6.81769         0.642903     -0.071680      0.172090
O      13.32878     11.33937      6.81106        -0.153721      0.784459      0.150810
O       1.83041     11.31976     11.01699         0.258377      0.955532     -0.042006
O      13.52291     11.38847     11.00767        -0.730231     -0.624002      0.254762
O       5.68821      3.82470      2.55410        -0.170493      0.231158      0.242916
O       5.75079      3.71423     15.40377        -0.113728      0.850534     -0.629127
O       5.67417      0.02855      2.63842         0.200617      0.258646     -0.575182
O       5.64061     15.14629     15.50502        -0.147754      1.349328     -0.344236
O       5.72423      3.79310      6.70220        -0.157699      0.193833      0.488070
O       5.58192      0.03304      6.64681         0.578002     -0.133948      0.810375
O       5.72270      3.83544     11.15479        -0.079845     -0.786083     -0.385564
O       5.55575      0.03595     10.79404         0.007286     -0.472122      0.544655
O       5.73543      7.60140      2.60961        -0.659088      0.009465     -0.145143
O       5.60927      7.61026     15.33450         0.297047     -1.000419     -0.150660
O       5.67439      7.57958      6.82916        -0.494062      0.548692      0.583060
O       5.60047      7.64017     10.99530        -0.166004     -0.879877      0.514255
O       5.77457     11.42066      2.57526        -0.036324     -0.647598      0.375255
O       5.82387     11.42402     15.16969        -0.431906     -0.129393      0.654084
O       5.75632     11.35341      6.70924        -0.393992      0.764764      0.472556
O       5.68991     11.41830     11.06913         0.620723     -0.060522      0.244550
O       9.61392      3.80864      2.51821        -0.946502      0.026233      0.254121
O       9.45372      3.81641     15.34387        -0.059164     -0.094560     -0.014681
O       9.54891      0.02326      2.54185        -0.404257     -0.163364      0.488421
O       9.54942      0.04277     15.28055         0.041574     -0.671334      0.467352
O       9.48782      3.83009      6.83665        -0.316232     -0.548375      0.245219
O       9.57293     15.19194      6.70975        -0.479904     -0.226280      0.441428
O       9.42428      3.71231     11.10978        -0.140906      1.407257     -0.145180
O       9.60197     15.17249     11.17563        -0.175947      0.823332     -0.139683
O       9.53493      7.56462      2.76955        -0.646840      0.945836     -0.470638
O       9.40385      7.65794     15.27023         0.162280     -2.245062     -0.020885
O       9.45357      7.57807      6.69212         0.331046      0.235050      0.360137
O       9.54302      7.56875     11.01200         0.387174      0.201251      0.396699
O       9.47474     11.41650      2.52783         0.006144     -0.200375      0.122591
O       9.48068     11.38517     15.38452         0.135101      0.243633      0.123940
O       9.44707     11.30753      6.76286        -0.103590      1.051003      0.242789
O       9.23060     11.40695     11.03298         0.516298     -1.177311      0.098000
