  # total energy = -7880.14042836 
CRSYTAL
PRIMVEC
    15.6000000000000000    0.0000000000000000    0.0000000000000000
     0.0000000000000000   15.6000000000000000    0.0000000000000000
     0.0000000000000000    0.0000000000000000    17.640000000000000
PRESSURE
-5.3175 -5.05928 -4.72946 -0.230352 0.612855 -0.016724
PRIMCOORD
320 1
Pb       3.80816      3.90377      4.32348         0.678522      0.434851      0.338714
Pb       3.87970      3.85877     17.54599        -0.053840      0.025016      0.034738
Pb       3.94082      0.10408      4.33989         0.297142     -0.762520      0.223768
Pb       3.88504     15.52182     17.55310         0.269108     -0.021302     -0.542203
Pb      15.57586      3.84175      4.39020         0.037041      0.018085     -0.500950
Pb      15.51853      3.92623     17.58645        -0.275050     -0.183152     -0.419079
Pb      15.58631      0.04327      4.43897        -0.116735     -0.270351     -0.512452
Pb       0.02672     15.52492     17.51881        -0.415951      0.500797     -0.072593
Pb       3.93753      3.82538      8.74489         0.087435      0.366920      0.028913
Pb       3.92079     15.52281      8.73013         0.017310     -0.326034     -0.007746
Pb      15.53866      3.89505      8.76902         0.289213     -0.069695      0.077390
Pb       0.02200     15.39762      8.77669         0.405734      0.750948      0.163090
Pb       3.85035      3.87897     13.26598        -0.355513     -0.597466     -0.288412
Pb       3.78415     15.52078     13.14044         0.115570      0.113128     -0.001021
Pb      15.50105      3.86338     13.04452         0.131214     -0.203219      0.278567
Pb      15.56712     15.56921     13.12665        -0.057021      0.590492     -0.289478
Pb       3.86330      7.73815      4.48382        -0.137201     -0.034054     -0.654971
Pb       3.82233      7.69755      0.00741        -0.162858      0.352417     -0.441632
Pb      15.53099      7.89888      4.34214         0.606346     -0.221555      0.031040
Pb      15.57510      7.73127     17.59665        -0.062500      0.127514     -0.051157
Pb       3.95907      7.74711      8.68807         0.002931     -0.162056      0.137596
Pb      15.52943      7.67398      8.79574         0.212565     -0.016708      0.035062
Pb       3.81090      7.65657     13.17310         0.256352      0.492313      0.079316
Pb       0.03064      7.77000     13.21196        -0.957816      0.068211     -0.112237
Pb       3.89344     11.73541      4.38376        -0.628790      0.203346     -0.346969
Pb       3.85177     11.70487      0.05077         0.347943     -0.375524     -0.737784
Pb      15.53934     11.72706      4.40850         0.605873     -0.035889     -0.383410
Pb      15.55599     11.72077     17.58168        -0.010380     -0.259837      0.172166
Pb       3.82659     11.59302      8.76081        -0.060047      0.504788     -0.354958
Pb      15.54179     11.73218      8.76047         1.001476     -0.617275     -0.389047
Pb       3.86060     11.72937     13.16491        -0.091517     -0.095731      0.132563
Pb      15.52325     11.65958     13.08461         0.895345     -0.685456      0.067278
Pb       7.68982      3.95468      4.34403         0.214187      0.055592      0.049101
Pb       7.71952      3.86937     17.53845         0.197414     -0.171439      0.290442
Pb       7.78607      0.14598      4.34247         0.655436     -0.191085     -0.115753
Pb       7.85521      0.04757     17.50553        -0.263055     -0.146999      0.154257
Pb       7.71524      3.81270      8.85910         0.257576     -0.443503     -0.568153
Pb       7.74563     15.50092      8.86906        -0.032213      0.539721     -0.755096
Pb       7.73005      3.92626     13.17273         0.798709     -0.527160      0.123389
Pb       7.75461     15.53880     13.20270        -0.300165      0.018714     -0.364060
Pb       7.75110      8.00812      4.35603         0.394170     -1.329843      0.957082
Pb       7.74399      7.81663      0.08814         0.186419      0.403160     -0.763845
Pb       7.75545      7.76848      8.75074        -0.125185      0.153566     -0.263145
Pb       7.59155      7.77876     13.16427         0.780624      0.096306      0.035542
Pb       7.83297     11.81036      4.37058         0.665144      0.216504      0.044830
Pb       7.74661     11.63449      0.00803         0.174957      0.034128     -0.604310
Pb       7.73104     11.68953      8.80222         0.072617     -0.065466     -0.505472
Pb       7.86721     11.58405     13.24207        -0.289584      0.413265     -0.642366
Pb      11.60093      3.94595      4.38077         0.283095      0.151840     -0.189410
Pb      11.73814      3.89565     17.58267         0.103689      0.003960     -0.307735
Pb      11.73434      0.15932      4.45056        -0.797664     -0.567182     -0.373390
Pb      11.63933     15.57385     17.56652         0.323908      0.025228     -0.139779
Pb      11.66354      3.84271      8.76414         0.120926     -0.137847      0.315258
Pb      11.75633      0.00448      8.89077         0.044868      0.196405     -0.860821
Pb      11.55503      3.85405     13.20947         0.076377     -0.023023     -0.450319
Pb      11.66484     15.45735     13.10854         0.612378      0.373922      0.137147
Pb      11.60024      7.83012      4.41737        -0.049146      0.177476     -0.547246
Pb      11.48609      7.83105     17.62728         0.320647      0.057006     -0.366304
Pb      11.65937      7.75943      8.70609         0.471636      0.370474      0.795595
Pb      11.57211      7.76159     13.18778         0.690191     -0.267370     -0.257544
Pb      11.72957     11.89228      4.30572        -0.570598     -0.521771      0.467348
Pb      11.80092     11.66505     17.55182        -0.510578      0.413646      0.052231
Pb      11.73393     11.56557      8.70314        -0.338124     -0.198715     -0.171263
Pb      11.69385     11.63571     13.08824        -0.234644      0.012276     -0.119246
Ti       2.00424      1.92001      2.34089        -0.776890      0.935310     -0.551923
Ti       1.93379      1.88019     15.55395        -0.556542      1.113732     -1.339002
Ti       1.93493     13.82935      2.23604        -0.002408     -1.776012     -0.195922
Ti       1.95293     13.53366     15.66561         0.841971      0.259800     -0.855279
Ti      13.65022      1.88301      2.37277        -0.078039      0.135340     -1.301757
Ti      13.63204      1.94074     15.59743        -0.198071      0.135559     -0.894790
Ti      13.61986     13.58790      2.30932         0.124813      0.776952     -0.640635
Ti      13.66783     13.67372     15.48418        -0.313097      0.104017     -0.312823
Ti       1.99881      1.97187      6.81031        -0.692880     -0.335981      1.021893
Ti       2.00246     13.66952      6.78648         0.676634     -1.727348     -0.123924
Ti      13.71583      1.83954      6.75914         0.076020      0.153929      1.483794
Ti      13.72049     13.58717      6.79348        -0.245118      0.393235     -0.952349
Ti       2.00880      1.92551     11.13345        -0.776117     -0.419143      1.303913
Ti       1.86693     13.57665     11.16238         2.099516     -0.088685     -2.136157
Ti      13.67643      1.93025     11.10416         0.146484     -0.040056     -0.648318
Ti      13.68765     13.58652     11.09668        -0.596102      0.955435      0.160424
Ti       1.95732      5.86556      2.34026         0.947866      0.667739      1.307889
Ti       1.96435      5.75173     15.53770        -0.577784      0.253386     -0.476851
Ti      13.72625      5.79978      2.41281        -0.412828     -0.095152     -1.057563
Ti      13.58923      5.90880     15.59663        -0.349054     -0.090130     -0.420037
Ti       1.97061      5.80829      6.68747        -0.031594      0.099796      0.477683
Ti      13.61257      5.73282      6.85323         0.736629      0.421743      0.889823
Ti       1.96521      5.74960     11.24460        -0.526837     -0.273352     -0.783360
Ti      13.62150      5.82191     11.11312         0.280241      0.586111     -0.264667
Ti       1.98562      9.77584      2.38012        -0.033203     -0.375238     -0.803682
Ti       1.89735      9.68869     15.64728         0.269368      0.350192     -0.923859
Ti      13.66585      9.74455      2.40793         0.070018      0.337023     -0.179071
Ti      13.60062      9.71892     15.71316         0.612870     -0.684721      0.009647
Ti       1.99337      9.62424      6.73517        -0.637592      1.077184      1.210688
Ti      13.71552      9.69375      6.79518        -0.083416     -0.389041     -0.510028
Ti       2.04847      9.56680     11.17770        -1.129256      1.513752     -0.840906
Ti      13.65560      9.73326     11.08177        -0.038401     -1.754044     -0.254141
Ti       5.79920      1.98944      2.36178         0.996141      0.560261     -0.237906
Ti       5.75861      1.98634     15.57334         0.559908     -0.808613     -0.863439
Ti       5.88122     13.60272      2.31562        -0.091880      0.639551     -0.127200
Ti       5.93513     13.62255     15.61136        -0.319096     -0.629817      0.094236
Ti       5.84779      1.93335      6.76907         1.238885     -0.135537      0.407965
Ti       5.93284     13.62852      6.70537        -0.874461      0.260975      1.363130
Ti       5.87538      2.02146     11.25413        -0.033765     -1.037349     -0.580098
Ti       5.78521     13.70159     11.17221         0.062037     -0.813575     -0.016653
Ti       5.88214      5.87209      2.31054         0.032510     -0.553118      1.543584
Ti       5.82610      5.87807     15.60057         0.150052     -0.121533      2.383871
Ti       5.86240      5.83613      6.72419         0.083307     -0.302134      0.407872
Ti       5.87023      5.80815     11.11709        -0.591605      0.044201     -1.384957
Ti       5.87071      9.77823      2.45691        -0.394415     -0.147019     -0.394260
Ti       5.86950      9.69156     15.60374        -0.651536      0.658429     -0.379636
Ti       5.86265      9.78185      6.73724         0.595516     -0.323552      0.222528
Ti       5.86819      9.74265     11.16948         0.209136      0.556171     -0.190629
Ti       9.80719      2.13166      2.34931        -0.509932     -1.333792     -0.453265
Ti       9.74122      1.95240     15.58115        -0.356925      0.575902     -1.127829
Ti       9.74062     13.71449      2.30238         0.509203      0.030251      1.039038
Ti       9.78904     13.63478     15.53952        -0.061050     -1.104697     -0.060946
Ti       9.82595      1.95874      6.88350        -1.413376     -1.138981     -0.669534
Ti       9.90313     13.62826      6.86565        -0.773077      0.151109     -1.831508
Ti       9.81014      1.78214     11.21053        -0.554885      1.874915     -1.093470
Ti       9.69287     13.61384     11.06297        -0.188081     -0.586922      0.636247
Ti       9.79908      5.86921      2.23398        -0.435516      0.139396      2.214953
Ti       9.66436      5.77629     15.59527         1.108877      0.759661     -1.093682
Ti       9.72787      5.82502      6.86430        -0.534193     -0.628990      0.426427
Ti       9.70850      5.80338     11.12527         0.859618     -0.041404      0.153479
Ti       9.73492      9.76195      2.37067         0.891002      0.228123     -1.237222
Ti       9.71962      9.76733     15.48959        -0.462344     -0.462741      1.062463
Ti       9.74617      9.69318      6.76965         0.334488      1.331561     -0.602842
Ti       9.73790      9.66803     11.12249         1.009395      0.003290      0.065096
O       1.95352      1.97682      0.58444         0.170946     -0.217017      0.480528
O       1.95024      2.08064     13.74876         0.004057     -0.997278      1.431569
O       1.88280     13.67747      0.39079         0.285788      0.431351      1.523069
O       2.18536     13.53101     13.87769        -0.808683      0.176380      0.857381
O      13.71957      2.01049      0.57874        -0.240422     -0.189085      1.016376
O      13.50076      1.88022     13.82860         0.515347      0.184644      0.622523
O      13.67093     13.52902      0.51296        -0.027003      0.112740      0.605794
O      13.55064     13.65750     13.67045         0.521841      0.018541      0.984919
O       1.99525      1.97140      5.08530        -0.015574     -0.392784     -0.835293
O       2.08058     13.60999      5.02787        -0.460587      0.414420     -0.618509
O      13.58680      1.77677      5.01199         0.442863      0.256948     -0.662126
O      13.66537     13.57000      4.98695         0.300320      0.210182      0.774475
O       2.10791      1.86363      9.42207        -0.159908      0.278605     -0.966462
O       1.86973     13.59264      9.29734         0.104806     -0.221195      1.910366
O      13.73091      1.82698      9.30889        -0.410060      0.170622      1.008718
O      13.82317     13.59982      9.29516        -0.578561     -0.130781      1.521343
O       2.07396      5.86687      0.59525        -0.237137     -0.091455     -0.215960
O       2.00064      5.77251     13.72862        -0.000324      0.402216      0.602747
O      13.80172      5.70224      0.62241        -0.146472      0.132214      1.446368
O      13.59668      6.07824     13.82762         0.220041     -0.438528      0.861956
O       2.08688      5.91575      4.93278        -0.301736     -0.572633      0.713806
O      13.57978      5.75940      5.14146         0.106284     -0.002287     -1.340041
O       1.90489      5.76546      9.48916         0.071982      0.201306      0.435544
O      13.85338      5.81459      9.31758        -0.596524     -0.213596      0.693648
O       2.04313      9.76681      0.56497        -0.008169     -0.063902      0.808217
O       1.80425      9.72610     13.86237         0.255287      0.104115      0.250021
O      13.68036     10.07990      0.66831         0.008967     -0.675056      0.121905
O      13.53944      9.52190     14.01422         0.305038      0.531051     -0.757750
O       2.03391      9.56255      5.00235         0.002090      0.306821     -0.029274
O      13.78438      9.62953      4.99047        -0.173042      0.058473      0.638688
O       2.02337      9.52549      9.38326         0.354657      0.151663      1.561372
O      13.62086      9.85904      9.30405        -0.069681     -0.252917      0.434777
O       5.88311      2.33523      0.62607        -0.246389     -1.093934      0.407686
O       5.70749      1.98151     13.79137         0.320387     -0.078516      0.662462
O       5.95749     13.47271      0.55138        -0.113331      0.259578      0.823131
O       5.97067     13.65747     13.85025        -0.268812      0.000023      0.327663
O       5.89594      1.92099      4.99696        -0.045992     -0.427273     -0.068339
O       5.90217     13.84205      4.97254        -0.033090     -0.560637     -0.462984
O       5.91228      2.00242      9.42888        -0.361890     -0.059507      1.571805
O       5.78226     13.71968      9.40524         0.224622     -0.154199      0.864039
O       5.75467      5.79061      0.58513         0.022437     -0.018206     -0.364443
O       5.96982      5.92226     13.91463        -0.455895      0.092540     -1.507993
O       5.83776      5.72892      4.97350         0.220993      0.341454      0.363463
O       5.87365      5.71728      9.31189         0.187574      0.151904      1.226527
O       6.04943      9.87440      0.66834        -0.405942     -0.328021      1.186507
O       5.89726      9.56815     13.82610         0.497088      0.034215     -0.399272
O       5.94138      9.69474      4.95175        -0.144918      0.247205      0.297314
O       5.86798      9.74923      9.41761        -0.075570     -0.131062      0.703496
O       9.76788      2.01904      0.57458         0.021860     -0.156510      0.400926
O       9.63395      2.10981     13.75199         0.541050     -0.918115      1.748446
O       9.81661     13.67853      0.56084        -0.088536      0.318182     -0.106034
O       9.80778     13.58395     13.76362        -0.277798      0.295199      0.604686
O       9.74439      1.90511      5.11576         0.347685      0.487182     -0.196943
O       9.87111     13.46416      5.02095        -0.014741      0.308254      1.563477
O       9.66174      1.84247      9.40866         0.735825     -0.190796      0.776796
O       9.71853     13.63516      9.28484         0.156025     -0.004442      0.732826
O       9.99158      5.82212      0.54522        -0.451070      0.179047     -1.524225
O       9.75137      5.76541     13.77825        -0.317425     -0.122300      1.250752
O       9.71913      5.76628      5.13493         0.532444      0.186040     -0.043329
O       9.77023      5.77014      9.34470        -0.315912      0.179903      1.005053
O       9.69993      9.61571      0.51111         0.029489      0.421327      1.982602
O       9.63205      9.68250     13.71397         0.262864      0.243706      0.606013
O       9.87199      9.61830      4.97022        -0.485345     -0.112868      0.794636
O       9.89908      9.71772      9.36804        -0.310240      0.147452      0.332464
O       3.93230      1.94184      2.82157        -0.496270     -0.192373     -0.421296
O       3.90153      1.91198     16.00986        -0.099647      0.248822      0.178690
O       3.88993     13.60650      2.55841        -0.042989      0.315548      0.314959
O       3.94262     13.55668     16.15135         0.006603      0.579182     -0.230275
O      15.54590      1.80887      2.81640         0.660028      0.400733      0.257455
O      15.55803      1.97386     15.94500         0.889143     -0.113758      0.063872
O       0.05657     13.72652      2.58103         0.481443     -0.209325      0.588024
O       0.02051     13.85846     15.86991         0.294307     -0.934657     -0.154599
O       3.93659      1.89468      7.15653        -0.046602     -0.553474      0.145110
O       3.92872     13.60053      7.09434         0.263486      0.035813      0.438280
O       0.07401      1.87902      7.08317        -0.081040      0.210516      0.006846
O       0.03677     13.57980      7.24013        -0.666647     -0.083515     -0.587496
O       3.80743      2.06531     11.65968         1.144742     -0.408130     -0.199211
O       3.81899     13.57547     11.59395         1.144760      0.413525     -0.045595
O      15.59997      1.88173     11.56701        -0.329919      0.146247      0.149279
O       0.06082     13.66013     11.55303        -2.146880     -0.501638      0.366688
O       3.93497      5.94963      2.88175         0.089550     -0.460084     -0.681601
O       3.82274      5.82935     16.07885         1.160859      0.331860     -0.488763
O       0.14376      5.77056      2.88023        -1.442421     -0.338227     -0.229943
O       0.08428      5.92239     16.06691        -0.136526     -0.319688     -0.369021
O       4.01981      5.83916      7.22789        -1.103366     -0.367035     -0.392340
O      15.58490      5.74151      7.21316         1.196114      0.318332     -0.538251
O       3.92675      5.80058     11.48433        -0.248006      0.049139      0.600964
O      15.51044      5.83026     11.61725         0.568308      0.115572      0.188667
O       3.96426      9.68364      2.90283         0.671225     -0.066342     -0.584076
O       4.03614      9.82524     15.88722        -1.182545     -0.465247      0.731549
O       0.08012      9.78300      2.86322        -0.508585     -0.059314     -0.134803
O      15.59111      9.60826     16.04622        -0.198001      0.615290      0.359973
O       4.02911      9.73797      7.32187        -1.476613     -0.329534     -0.855594
O       0.04828      9.61710      7.21300         0.027150      0.074102     -0.423671
O       3.92694      9.81449     11.69847        -0.014456     -1.168137     -0.668408
O      15.59642      9.72434     11.49025         0.143591      0.222391      0.383278
O       7.92936      2.01479      2.85739        -1.024955     -0.095529     -0.349085
O       7.79437      1.94591     16.06410         0.260376      0.037388     -0.305061
O       7.80206     13.60763      2.79101         0.101805      0.230680     -0.261984
O       7.84051     13.61308     16.02289         0.265018      0.351551     -0.210503
O       7.80767      1.98485      7.32580        -0.284623     -0.614128     -0.397792
O       7.75789     13.49446      7.23308         0.940039      0.307828     -0.207460
O       7.75854      1.86699     11.61028        -0.309632      0.071707      0.072074
O       7.79837     13.74586     11.58869         0.412217     -0.250247     -0.416504
O       7.88802      5.58656      2.62196        -0.729520      0.861805     -0.312051
O       7.80127      5.88839     16.11383         0.057681     -0.440347     -0.442896
O       7.80981      5.85931      7.21345         0.159147     -0.097470     -0.024760
O       7.73532      5.82018     11.64868         1.048069     -0.313640     -0.608747
O       7.90713      9.68932      2.95775        -0.880451      1.312769     -0.988361
O       7.80126      9.76447     16.07280         0.857655     -0.504464     -0.329618
O       7.79472      9.71721      7.20250         0.115856      0.107197     -0.053742
O       7.86941      9.65064     11.49824        -1.121738     -0.025772      0.179412
O      11.67542      1.92253      2.77125         0.778045      0.311483      0.285045
O      11.66650      2.02326     16.02983        -0.075578     -0.688889     -0.061210
O      11.73622     13.52451      2.67376        -0.232293      0.023467     -0.080073
O      11.74194     13.58503     15.90806        -0.086746      0.515933      0.182248
O      11.74548      1.89677      7.21615         0.406332     -0.054245      0.258382
O      11.79892     13.73321      7.22880        -0.077317     -0.686702      0.141637
O      11.73438      1.84994     11.59882        -0.472459     -0.042129     -0.437534
O      11.70476     13.69346     11.56559         0.225853     -0.668380     -0.902630
O      11.76363      5.79529      2.87682         0.234136      0.655466     -0.355459
O      11.72780      5.78626     15.93982        -0.609549      0.171668      0.261738
O      11.73300      5.79904      7.35363        -0.750611     -0.157280     -0.627475
O      11.75449      5.78398     11.54355        -1.188951     -0.063870     -0.103523
O      11.71089      9.64146      2.78400         0.583041      0.168917     -0.197947
O      11.72028      9.77720     16.08251        -0.526775      0.099973     -0.160050
O      11.72707      9.77965      7.11264         0.421966     -0.565073      0.218765
O      11.71204      9.64125     11.64360        -0.086570      1.009513     -0.219061
O       1.99456      3.79808      2.83036        -0.288440      0.365765     -0.323322
O       2.05128      3.88268     15.78492        -0.307796      0.040762      0.844549
O       2.01271      0.05164      2.83397        -0.038529     -0.685332     -0.379723
O       2.04002      0.04258     15.99949        -0.106484     -0.525878     -0.031259
O      13.64571      3.84868      2.79995         0.497768      0.103575      0.418239
O      13.64388      3.94253     16.05489         0.469661     -0.200479     -0.257802
O      13.56941     15.48999      2.68904         0.207029      0.865742      0.323351
O      13.70048      0.01121     15.96423        -0.708819     -0.222761      0.191863
O       2.06854      3.89700      7.21545        -0.258250     -0.145536     -0.434159
O       1.91690     15.45250      7.29898         0.421301      1.882712     -0.569055
O      13.75824      3.77769      7.24589        -0.717122      0.254100     -0.424180
O      13.79156     15.53970      7.20193        -0.438990      0.026796     -0.234058
O       1.82704      3.86555     11.62177         0.335906      0.274311     -0.261024
O       1.92998     15.51115     11.54606         0.221872      0.587408      0.363202
O      13.61614      3.87520     11.45424         0.281920     -0.496281      0.141327
O      13.65689      0.01157     11.54222         0.189775     -1.410780     -0.079314
O       1.97107      7.78768      2.76415        -0.033143     -0.195652     -0.125763
O       2.01458      7.86459     15.93253         0.426682     -1.361329      0.484740
O      13.88100      7.79629      2.64567        -0.651346     -0.391514      0.097939
O      13.58418      7.77618     16.28652         0.258091      0.088017     -0.406643
O       2.07918      7.68872      7.09668        -0.096754      0.099377      0.243552
O      13.67838      7.73753      7.32198        -0.292158      0.339293     -0.720901
O       1.88231      7.72546     11.76196         0.870469      0.405195     -0.732798
O      13.60106      7.83348     11.49779         0.350956     -0.232095     -0.270032
O       2.03771     11.60993      2.79101        -0.015708      1.114344      0.009486
O       1.96241     11.66151     16.02367        -0.390864      0.547746      0.151517
O      13.74543     11.70713      2.87542        -0.020292     -0.265920     -0.109239
O      13.82003     11.78753     15.95864        -0.413577     -0.571950     -0.231165
O       1.91925     11.62876      7.11592         0.384582     -0.800489      0.246876
O      13.72111     11.64952      7.11480        -0.075323      0.083747      0.137908
O       2.02774     11.68042     11.58449        -0.871496     -0.526161      0.046017
O      13.64939     11.64965     11.56454        -0.065136      0.967556     -0.138540
O       5.73989      3.89296      2.86468         0.431247      0.056778     -0.115858
O       5.86022      3.86174     15.92913        -0.149907      1.041891      0.157503
O       5.85131      0.03102      2.66235         0.122611     -0.069086     -0.027737
O       5.88954      0.03870     16.01847        -0.160979     -0.560557      0.210691
O       5.83172      3.78840      7.13459         0.163985      0.831765      0.149322
O       5.94709     15.48397      7.32984        -0.408933      0.861073     -0.738449
O       5.84661      3.89175     11.72858        -0.024673      0.032408     -0.617020
O       5.75921     15.57248     11.72257         0.018246      0.480353     -0.449777
O       6.10477      7.75947      2.70137        -0.622796      0.320018     -0.258253
O       5.90759      7.72643     16.12393        -0.344288      0.385866     -0.079626
O       5.82003      7.80550      7.08227         0.492527     -0.329911      0.279772
O       5.87618      7.68715     11.46581        -0.273284      1.030273      0.374104
O       5.83785     11.70588      2.92094         0.389496     -0.151612     -0.470794
O       5.92742     11.63779     15.99654         0.267286      0.809035     -0.020938
O       5.82508     11.63687      7.29553         0.206448      0.420474     -0.656355
O       5.95999     11.73358     11.55557        -0.152354     -0.779688      0.053143
O       9.83852      3.98306      2.72278         0.496090     -0.687565      0.249199
O       9.78003      3.86179     15.96583        -0.404272      0.421266      0.086217
O       9.90632     15.57598      2.87771        -0.823038     -0.309552     -0.671638
O       9.73931     15.56586     16.05034         0.308188      0.365191     -0.500447
O       9.75944      3.81810      7.30732         0.328961      1.442846     -0.196794
O       9.84009     15.57431      7.02573        -0.382905     -0.800160      0.955732
O       9.76884      3.74917     11.59284        -0.256526      1.350391     -0.224105
O       9.73439     15.53744     11.51629         0.159709     -0.668380      0.278454
O       9.74463      7.78765      2.70883         0.135405     -0.608193      0.188105
O       9.80783      7.78961     15.94690        -0.087770     -0.148452      0.039479
O       9.74083      7.88287      7.33792         0.191321     -1.695124     -0.634480
O       9.84976      7.70855     11.52639        -0.728993     -0.314044     -0.381330
O       9.74022     11.68329      2.70881        -0.028371     -0.254163      0.042314
O       9.79747     11.65951     15.85496        -0.161644      0.211803     -0.001525
O       9.81261     11.63203      7.16655        -0.017441      0.274536      0.402719
O       9.71903     11.63532     11.56218         0.190696      0.754499     -0.147452
