  # total energy = -7879.72859961 
CRSYTAL
PRIMVEC
    15.6000000000000000    0.0000000000000000    0.0000000000000000
     0.0000000000000000   15.6000000000000000    0.0000000000000000
     0.0000000000000000    0.0000000000000000    17.640000000000000
PRESSURE
-5.55875 -5.73375 -7.1819 -0.069444 0.444626 -0.037773
PRIMCOORD
320 1
Pb       3.80774      3.92032      4.30774         0.178836     -0.300298     -0.101238
Pb       3.84227      3.81326     17.54101         0.135096     -0.177810      0.809773
Pb       4.03067      0.09074      4.35708        -0.663394      0.479286     -0.297279
Pb       3.93961     15.49983     17.49849        -0.276030      0.191275      0.662189
Pb      15.58895      3.86421      4.35434         0.143074     -0.141967      0.457884
Pb      15.49762      3.91061     17.60650         0.180892     -0.272279      0.010927
Pb      15.56551     15.59481      4.41818         0.561068      0.124276     -0.265048
Pb       0.11947     15.50531     17.51193        -0.149802     -0.008611      0.140696
Pb       3.96275      3.80322      8.71986        -0.195453     -0.166777      0.289137
Pb       3.88124     15.53799      8.74880         0.186698      0.037098     -0.094458
Pb      15.54531      3.85844      8.74364        -0.094160     -0.128290     -0.631783
Pb       0.02697     15.41385      8.88103         0.091459      0.071133     -0.584977
Pb       3.79847      3.97378     13.22366         0.051921      0.176643     -0.636739
Pb       3.77179     15.52882     13.13918         0.308169      0.031150     -0.220766
Pb      15.48286      3.84938     13.10007         0.061395      0.001190     -0.266800
Pb      15.58076     15.58118     13.12670         0.366060      0.058084     -0.364890
Pb       3.82898      7.72522      4.39169         0.083174      0.349657     -0.367747
Pb       3.76528      7.70853     17.62976         0.111154      0.591688     -0.198694
Pb      15.48982      7.85117      4.40807         0.283051      0.064956     -0.565394
Pb      15.52267      7.72676      0.00940         0.389557      0.553105     -0.269747
Pb       3.95351      7.75302      8.70433        -0.230849      0.328770      0.086502
Pb      15.56259      7.67820      8.79328         0.376455      0.142391     -0.575241
Pb       3.84739      7.71105     13.19899        -0.209553     -0.059854     -0.503203
Pb      15.50834      7.81550     13.21124        -0.033009     -0.371924     -0.199202
Pb       3.88374     11.73148      4.35914         0.392700     -0.360532     -0.141838
Pb       3.88956     11.67193      0.00636        -0.040841     -0.084926     -0.096477
Pb      15.53653     11.68145      4.45961        -0.142496      0.262904     -0.921905
Pb      15.53950     11.67791      0.06183         0.449525     -0.317730     -0.687721
Pb       3.84748     11.61846      8.73116         0.304959      0.078732     -0.090906
Pb      15.53398     11.70508      8.79333         0.649833      0.141688     -0.339386
Pb       3.88233     11.74296     13.17870         0.232902     -0.289182     -0.011826
Pb      15.59129     11.63597     13.12083        -0.010606      0.189110      0.404485
Pb       7.73952      4.00562      4.33752         0.286889      0.234909     -0.338977
Pb       7.72143      3.82793     17.51390        -0.149369     -0.114631      0.014825
Pb       7.85878      0.10417      4.30894         0.044193     -0.307159      0.087086
Pb       7.87904     15.57289     17.56104        -0.122824     -0.056582     -0.124796
Pb       7.80960      3.83779      8.79445        -0.039066      0.270314      0.086671
Pb       7.72342     15.48935      8.79343         0.380730      0.185558     -0.066451
Pb       7.69223      3.93127     13.11096         0.072746     -0.317068     -0.193045
Pb       7.71161     15.48252     13.23004         0.323657      0.325262     -0.404368
Pb       7.70835      7.98292      4.34886         0.232995     -0.410737     -0.204234
Pb       7.78824      7.81615      0.04690        -0.222879      0.256009     -0.491338
Pb       7.78432      7.76974      8.77248         0.042577      0.036895     -0.181930
Pb       7.62643      7.72547     13.13943         0.451977      0.128609     -0.152721
Pb       7.78979     11.82997      4.36277         0.194910     -0.159921     -0.156377
Pb       7.74070     11.67449      0.04281        -0.187438     -0.092969      0.014447
Pb       7.69827     11.68078      8.87957        -0.071065     -0.178961     -0.561115
Pb       7.86652     11.57458     13.24458        -0.123005     -0.257663     -0.394397
Pb      11.56918      3.99042      4.38095        -0.063558     -0.410550      0.242170
Pb      11.73332      3.95628     17.55549         0.070983     -0.475086     -0.255215
Pb      11.74166      0.10705      4.43263        -0.046987      0.180712     -0.113704
Pb      11.65724     15.59409     17.57998         0.059873     -0.092009     -0.553030
Pb      11.66967      3.87636      8.79571         0.334148     -0.566438     -0.829679
Pb      11.70538     15.57477      8.88054        -0.137087      0.586650     -0.435023
Pb      11.54522      3.89152     13.22769        -0.051046     -0.362326     -0.389410
Pb      11.70778     15.45871     13.15405        -0.829160      0.801820     -0.409432
Pb      11.60881      7.82185      4.41176         0.068970     -0.032805     -0.472797
Pb      11.53973      7.85601     17.63539         0.351546      0.268624     -0.243548
Pb      11.70908      7.74604      8.75717        -0.225664     -0.006289     -0.649359
Pb      11.61725      7.80383     13.20799         0.109115     -0.335513     -0.308681
Pb      11.73494     11.93648      4.40029         0.138918     -0.243364     -0.653184
Pb      11.76912     11.71872     17.62286        -0.061251      0.034887     -0.367727
Pb      11.70616     11.60977      8.70118        -0.184758      0.075041      0.445489
Pb      11.74034     11.68746     13.09342        -0.125716     -0.376534     -0.110709
Ti       1.90658      2.03157      2.39181         1.178260     -1.519211     -1.396446
Ti       1.84647      1.95420     15.50976         0.826986     -0.199403      0.044758
Ti       2.01670     13.68493      2.34332        -0.618336      1.369730     -1.008197
Ti       1.97164     13.61339     15.56004        -0.297598     -1.350213     -1.191846
Ti      13.63927      1.93220      2.35273         0.039594     -0.041250     -1.197760
Ti      13.58593      1.85948     15.52711        -0.112593      0.272128     -0.033130
Ti      13.77897     13.73137      2.23240        -0.988513     -1.038876      0.189736
Ti      13.66726     13.59075     15.46741         0.148793      0.071498      0.997672
Ti       2.06007      1.87547      6.82215        -0.095803     -0.516605     -0.600406
Ti       2.17050     13.52366      6.57807        -2.228067      1.364063      1.261012
Ti      13.79571      1.83179      6.89754        -1.710972      0.264493     -0.045670
Ti      13.79572     13.58552      6.78435         0.198781      1.054153     -0.572780
Ti       1.97708      1.93730     11.10701        -0.183538     -0.127879      0.173560
Ti       1.98758     13.50255     11.20916         0.070850      1.071480     -1.698744
Ti      13.63227      1.89752     11.18050        -0.202499      0.025248     -1.035116
Ti      13.64312     13.59534     11.13541         0.406945     -0.214334     -0.952427
Ti       1.96594      5.89166      2.35594        -0.294178      0.131056     -0.049125
Ti       1.92760      5.79541     15.61031        -0.225861      0.799957     -1.656209
Ti      13.70627      5.77659      2.46545        -0.306731      0.506511     -1.271482
Ti      13.67301      5.82370     15.58663        -0.008538      0.362888     -1.070086
Ti       1.97092      5.79185      6.75578        -0.517615     -0.120201     -1.204641
Ti      13.61036      5.82062      6.68074         0.091561     -0.864134      0.584469
Ti       1.80254      5.80863     11.09802         0.528637      0.030079      0.854367
Ti      13.55820      5.81090     11.08750         0.435920     -0.480052      0.048057
Ti       2.01299      9.82124      2.39722        -1.246196     -0.781592     -1.600873
Ti       1.97855      9.75757     15.61834        -0.620042      0.242829      0.159284
Ti      13.71252      9.77158      2.35716        -0.255500      0.153344     -0.691687
Ti      13.65188      9.71145     15.67494         0.258085      0.214134     -0.192869
Ti       1.87890      9.68755      6.73569         1.157634     -0.008244     -0.062214
Ti      13.69833      9.70485      6.79455        -0.322131     -0.506949     -0.809920
Ti       1.93722      9.70283     11.18157         0.780739     -1.017554     -1.067472
Ti      13.65902      9.66364     11.12621        -0.312834      0.285700      0.112058
Ti       5.96068      2.05294      2.37087        -0.997538     -0.769844     -1.455945
Ti       5.78542      1.88790     15.65789         0.736535      0.156921     -0.777905
Ti       5.82475     13.69879      2.41425         1.724740     -0.336907     -0.799510
Ti       5.88756     13.57316     15.64085         0.045614      0.325897     -1.656651
Ti       5.95862      1.97732      6.82824        -0.596789     -0.602163     -0.527625
Ti       5.97992     13.66886      6.69641        -0.607998     -0.293490      0.873236
Ti       5.79948      1.83956     11.27858         0.081277      0.490408     -1.811872
Ti       5.91644     13.50333     11.24849        -1.085038      0.593007     -1.395823
Ti       5.78793      5.83745      2.23802         0.876255      0.413792      0.306474
Ti       5.79091      5.85705     15.66266        -0.330112     -0.004565     -0.904065
Ti       5.86066      5.78829      6.75322        -0.011217      0.910361     -0.415532
Ti       5.81877      5.81155     11.14604         0.028674     -0.143955     -1.255993
Ti       5.84851      9.78770      2.44492        -0.164945      0.324340     -1.648751
Ti       5.85276      9.75246     15.63487         0.009428     -0.012565      0.012664
Ti       5.82474      9.69415      6.82289         0.146366      0.785214     -1.127644
Ti       5.85078      9.69446     11.17151        -0.511144      0.227165     -2.056223
Ti       9.77498      1.91418      2.35868         0.360782      0.669161     -0.874567
Ti       9.69665      1.98089     15.55867         0.830229     -0.958163     -1.909533
Ti       9.78798     13.66583      2.33188        -0.120832      0.271919      0.651313
Ti       9.77352     13.58664     15.51686        -0.038682      0.921265     -0.855886
Ti       9.79592      1.88976      6.82798         1.025357     -0.216901      0.042814
Ti       9.86306     13.63078      6.78031        -0.235647      0.820658     -0.955262
Ti       9.73946      1.90003     11.15250         0.359099     -1.505677      0.261941
Ti       9.76259     13.53582     11.13950        -0.684184      0.798680     -0.349165
Ti       9.73639      5.87449      2.22908        -0.640460      0.092145      1.438330
Ti       9.68086      5.87638     15.63624         0.214938      0.207607     -1.790731
Ti       9.71275      5.82902      6.85534         0.479468      0.190409     -0.560000
Ti       9.75870      5.78439     11.10094        -1.014934      0.664784     -0.659734
Ti       9.82920      9.81340      2.40232        -0.162421      0.073764     -1.162664
Ti       9.68067      9.80089     15.56789         0.121954     -0.132083      0.135997
Ti       9.77007      9.81932      6.76797        -1.015916     -1.572792     -0.909908
Ti       9.79191      9.64390     11.16315        -0.964092      1.403324     -0.723987
O       2.01299      2.02265      0.59726        -0.468976     -0.143942      0.705979
O       1.88261      1.87285     13.70731        -0.031242      0.469937      2.017360
O       2.03840     13.79040      0.48931        -0.105738     -0.460607      1.486810
O       1.87731     13.50609     13.66309         0.838774      0.166610      1.716312
O      13.68930      2.06748      0.52330        -0.184980     -0.116626      1.757044
O      13.64751      1.83571     13.72900        -0.241860      0.151867      0.957760
O      13.59134     13.59122      0.45104         0.429848      0.239558      0.902260
O      13.71272     13.58873     13.67371        -0.381432     -0.169573      0.723905
O       2.01040      1.82928      5.04356         0.044056      0.458526      0.051877
O       2.01840     13.70384      4.83977         0.099515     -0.531841     -0.390337
O      13.78163      1.72705      5.13359        -0.186290      0.061187     -0.391688
O      13.90362     13.58841      4.97600        -0.566662      0.067475      0.861365
O       2.08694      1.97481      9.34147        -0.387503     -0.265679     -0.205553
O       2.08462     13.63474      9.36210        -0.409152     -0.158086      1.812423
O      13.68221      1.75212      9.38228         0.021521      0.372160      0.688163
O      13.80001     13.56455      9.29689        -0.006914     -0.099590      1.408686
O       1.99342      5.79583      0.60480        -0.322216      0.236866     -0.170434
O       1.92493      5.80739     13.76744         0.023044     -0.189782      1.200066
O      13.79418      5.65102      0.60801        -0.513395      0.238869      1.768928
O      13.72227      6.03021     13.80277        -0.407321     -0.488476      0.714038
O       2.01757      5.80347      4.93158         0.093338      0.222056      1.018492
O      13.53709      5.89142      4.93439         0.120256     -0.103307     -1.189720
O       1.74231      5.91387      9.33573         0.215658     -0.405912      0.535767
O      13.59442      5.76221      9.31444         0.185963      0.240423      0.577970
O       1.85869      9.68913      0.60406         0.408064      0.361180      0.830302
O       2.03688      9.82347     13.81944        -0.314592     -0.183174      0.751628
O      13.69585      9.75379      0.52143        -0.126553      0.209747      1.274219
O      13.67365      9.77426     13.90069        -0.163729     -0.402577      0.150962
O       2.02104      9.69159      4.94933        -0.398080     -0.052395      0.697604
O      13.72190      9.67813      5.00442         0.064202      0.138393      0.566051
O       1.94530      9.52620      9.41438        -0.267919      0.623678      0.531706
O      13.68484      9.66738      9.36656        -0.009777      0.070623     -0.146238
O       6.00494      2.00928      0.56313        -0.112378      0.125358      0.674703
O       5.88485      1.89347     13.88973        -0.437677     -0.024801      0.256681
O       5.95569     13.46389      0.63664        -0.237181      0.489466      0.639216
O       5.78084     13.61845     13.80152         0.329567     -0.268601      0.896644
O       5.95529      2.01346      5.06276        -0.090566      0.178785     -0.184594
O       6.01523     13.62981      4.96874        -0.291122      0.358784     -0.553724
O       5.77635      1.84939      9.44987         0.356131      0.170841      1.160756
O       5.85912     13.56663      9.41293         0.187028     -0.118285      0.879023
O       5.84576      5.84330      0.46615         0.025883      0.031363      0.157576
O       5.67514      5.85715     13.84306         0.721213      0.078906      0.644168
O       5.91669      5.86851      4.94565        -0.145746     -0.264423      0.991260
O       6.00119      5.89934      9.35526        -0.875424     -0.112656      1.291957
O       5.85150      9.98625      0.61999         0.200396     -0.394809      1.485661
O       5.98870      9.75547     13.85692        -0.414711     -0.003202      0.220388
O       5.74417      9.70866      4.99493         0.161956     -0.398617      0.503213
O       5.75768      9.81615      9.25152         0.409093     -0.394449      1.555177
O       9.80620      1.95578      0.56750        -0.098907     -0.056132      0.232682
O       9.99183      1.90179     13.70671        -0.622415      0.559840      1.716085
O       9.75526     13.79662      0.57318         0.196207     -0.421317     -0.090727
O       9.80495     13.72085     13.71302        -0.054575     -0.578826      0.772504
O       9.94639      1.88022      5.03441        -0.348000     -0.170749      0.250517
O       9.90457     13.68376      4.90798        -0.158734     -0.097006      2.237341
O       9.89447      1.75395      9.38986        -0.883845      0.595067      0.937888
O       9.59183     13.53358      9.36373         0.303768     -0.091827      0.462956
O       9.74882      5.86822      0.47494         0.079359     -0.181446     -0.209195
O       9.74131      5.97912     13.78192         0.231055     -0.178769      1.294450
O       9.73224      5.76337      5.07282        -0.183019      0.048447      0.578640
O       9.64647      5.83998      9.29704         0.522038     -0.208486      1.042444
O       9.83077      9.82450      0.56171        -0.133227     -0.269364      1.493447
O       9.54460      9.78055     13.77481         0.502793     -0.406391      0.606727
O       9.75031      9.63063      4.95632         0.279986      0.440443      0.847803
O       9.72010      9.78720      9.40231         0.307719     -0.085854     -0.267533
O       3.91790      1.99289      2.73022         0.287063     -0.050311      0.555717
O       3.94210      1.91595     16.09406        -0.971017     -0.424436     -0.597751
O       4.01631     13.73398      2.82501        -0.854036     -0.113143     -0.242527
O       3.98823     13.59220     16.03139        -0.855862     -0.181431     -0.307155
O       0.04963      1.93196      2.85725        -1.134939      0.026611     -0.189008
O       0.04991      1.86098     16.01884         0.260440      0.069823     -0.682041
O       0.00838     13.66733      2.61735         0.565418      0.188016     -0.011480
O       0.04020     13.57836     15.87033        -0.592435      0.442087      0.209436
O       3.99937      1.96541      7.25249        -0.375018      0.456583     -0.117066
O       3.89108     13.54503      7.10024         1.938594     -0.198854     -0.125094
O       0.00593      1.81749      7.27354         1.236117      0.187099      0.156816
O       0.09656     13.67772      7.16544        -0.199194     -0.224671      0.125291
O       3.86087      1.94562     11.53410         0.449309      0.075788      0.597702
O       3.94366     13.60372     11.66462        -0.892246     -0.140882     -0.037272
O      15.53289      1.96453     11.58024         0.286284     -0.177669     -0.075029
O       0.09699     13.47396     11.55389        -1.149786      0.505053     -0.366618
O       3.88106      5.74032      2.60791        -0.052992      0.348252      0.589464
O       3.89299      5.91978     15.85891        -0.100029     -0.130756      0.794732
O      15.57792      5.74532      2.81658        -0.625574      0.538973     -0.073475
O      15.59890      5.77058     15.97419         0.451004      0.215546      0.268559
O       3.89140      5.84979      7.07465         0.138888     -0.095810      0.344191
O      15.57811      5.74007      6.97551         0.253059      0.093364      0.650973
O       3.87825      5.73824     11.59236        -0.695400      0.418018     -0.323521
O      15.46483      5.76010     11.57222         1.180315      0.158348     -0.323649
O       3.84575      9.76093      2.70991         1.137249      0.295696      0.571155
O       3.81580      9.75406     16.15591         0.550758      0.212995     -0.596511
O       0.08261      9.71465      2.78012        -1.189891      0.442245      0.452436
O      15.59624      9.82521     16.12945         0.140441     -0.563452     -0.545987
O       3.83748      9.73674      7.14733         0.225771     -0.320023      0.182766
O      15.58271      9.62200      7.18357         0.011004      0.077642     -0.060961
O       3.92929      9.58700     11.51628        -0.718532      0.735381      0.351426
O      15.51746      9.79520     11.61596         0.652678     -0.505832     -0.226357
O       7.82958      2.07864      2.72181         0.190954     -0.096857      0.465961
O       7.76331      1.92982     15.94867         0.584860      0.128389      0.193483
O       7.89946     13.66905      2.78608        -0.456352     -0.346905      0.217407
O       7.85000     13.65748     15.89818         0.295585     -0.077328      0.260200
O       7.84983      1.89801      7.18995        -0.495810     -0.033627      0.298200
O       7.82791     13.74329      7.14907         0.071436     -0.442640     -0.173182
O       7.79365      1.89796     11.69581        -0.059369      0.109135     -0.303022
O       7.73194     13.58797     11.51410         0.873548      0.025729      0.557709
O       7.77038      5.86337      2.64653         0.313021     -0.504536      0.044698
O       7.77663      5.85313     15.89003        -0.131442      0.232879      0.413460
O       7.70024      5.82197      7.29621         1.512953     -0.165013     -0.626017
O       7.79108      5.79757     11.51552         0.257182      0.411301      0.509898
O       7.74801      9.89304      2.72861         0.283964     -0.801321      0.332090
O       7.77681      9.71507     16.04432         0.447154      0.210529      0.233611
O       7.83151      9.61648      7.05989         0.062804      0.305543      0.266384
O       7.75535      9.71082     11.47849        -0.153160      0.182254      0.451330
O      11.75460      1.88693      2.84355         0.008913     -0.169448     -0.307340
O      11.70471      1.93280     16.04868         0.420387      0.589841     -0.353995
O      11.73182     13.55308      2.73186         0.005898      0.643362     -0.102137
O      11.71941     13.64224     15.95168         0.036409     -0.156247     -0.251254
O      11.66299      1.79693      7.31699         0.707030      0.308951     -0.073413
O      11.76948     13.41836      7.13542        -0.444296      0.511384     -0.232793
O      11.68684      1.76065     11.46760         0.190759      0.554867      0.478434
O      11.67385     13.58085     11.33684         1.180070      0.083313      0.529461
O      11.59783      6.00931      2.72928         0.658952     -0.893466     -0.074114
O      11.73168      5.80698     15.93344        -0.127542     -0.032745      0.285665
O      11.72107      5.72563      7.13421        -1.081027      0.145490      0.392742
O      11.67581      5.85384     11.54363        -0.546255      0.266592      0.074096
O      11.78772      9.80660      2.72618        -0.915510     -0.140395      0.104888
O      11.59649      9.73849     16.00190         0.736622     -0.280730     -0.080816
O      11.71888      9.66740      7.29024         0.149109      0.548353     -0.498320
O      11.67473      9.75223     11.57071         0.660587     -0.513991      0.312092
O       1.85647      3.91067      2.80862         0.430685      0.109379      0.167226
O       2.06681      3.92585     16.09494        -0.680853     -1.197848     -1.211905
O       1.97567     15.58654      2.69236         0.098717      0.121206      0.385671
O       2.01993     15.46029     15.95061        -0.123393      1.538562     -0.304821
O      13.59355      3.80649      2.94610         0.161535      1.137093     -0.592996
O      13.80892      3.85140     15.90716        -0.858787     -0.236829     -0.101755
O      13.63159      0.01226      2.65754         0.338826     -0.141930      0.148302
O      13.63287     15.56094     15.98929         0.262389     -0.042143     -0.481493
O       2.00132      3.81043      7.09809        -0.218070      1.060000      0.427474
O       2.20719     15.56178      7.00191        -0.601371     -0.300328      0.668944
O      13.56327      3.82128      7.20188         0.662239     -0.299567      0.126003
O      13.63715     15.50628      7.21125         0.105196     -0.837903      0.157657
O       1.88941      3.81240     11.54627        -0.155260      1.495045      0.020840
O       1.89362      0.06084     11.56531         0.108177     -1.154394     -0.015681
O      13.56160      3.83631     11.49744        -0.140030      0.390127      0.279720
O      13.74618     15.50470     11.56429        -0.174207     -0.789814     -0.217505
O       1.91728      7.81742      2.69699         0.400935     -1.024245      0.445639
O       1.97411      7.70308     16.05552        -0.529987      0.793207     -0.190974
O      13.61869      7.86254      2.76450         0.639523     -0.896791      0.041135
O      13.77616      7.76988     16.01529        -0.559744      0.031761      0.155648
O       1.90428      7.76675      7.20645         0.104971     -0.339043     -0.384549
O      13.56490      7.66818      7.07121         0.309131      1.214734      0.556843
O       1.90126      7.79401     11.58216        -0.429303     -1.131149      0.214125
O      13.67465      7.73643     11.50285        -0.246729      0.536563      0.152987
O       1.99361     11.79910      2.69665         0.184339     -0.601045      0.253915
O       1.91279     11.70813     16.13085         0.468876     -0.052971     -0.563879
O      13.74861     11.77327      2.79741         0.044279     -0.799051     -0.076949
O      13.62152     11.65938     16.03929        -0.073574      0.690611     -0.258920
O       1.93435     11.66959      7.12293        -0.310813     -0.691807     -0.209779
O      13.81177     11.62028      7.07656        -0.279790      0.026682      0.413908
O       1.95121     11.62535     11.42049         0.511701     -0.186292      0.434064
O      13.58024     11.61557     11.52985         0.186609      0.807804      0.014674
O       5.84606      3.93163      2.75165         0.152768      0.245560      0.099675
O       5.74226      3.90863     15.99937         0.647491      0.008176     -0.081699
O       6.05069      0.06221      2.72729        -0.672098     -0.183370      0.219704
O       5.92562     15.45712     16.11075        -0.287255      1.229869     -0.245777
O       5.88776      3.93456      7.29771        -0.009756     -0.534786     -0.361785
O       5.75425      0.06082      7.07904         0.510447     -1.334514      0.289747
O       5.90258      3.92216     11.49800        -0.225291     -0.576598      0.647249
O       5.76614     15.56797     11.63596         0.364094     -0.215986      0.161754
O       5.76573      7.79048      2.65775         0.217506      0.245925      0.217617
O       5.81473      7.93417     16.08559         0.105414     -1.393397      0.027029
O       5.86575      7.75885      7.20988        -0.370873      0.104402     -0.214061
O       5.77683      7.78447     11.58262         0.459348     -0.621212      0.183411
O       5.87910     11.75560      2.93765        -0.518765     -0.154478     -0.152669
O       5.92449     11.69136     16.08233        -0.220903     -0.241018     -0.218727
O       5.91840     11.67355      7.04704        -0.024124      0.273059      0.450840
O       5.81956     11.58658     11.54120        -0.081996      0.598781      0.375940
O       9.85746      3.77737      2.79134        -0.276431      1.862488     -0.200824
O       9.67743      3.88987     15.85346         0.410170      0.394183      0.352096
O       9.62795      0.05648      2.73448         0.861611     -0.644880      0.132716
O       9.81335      0.04885     15.84708        -0.312541     -0.302776      0.691127
O       9.77295      3.75402      7.27402        -0.332509      1.296342      0.002031
O       9.79386     15.56693      7.34078        -0.044954     -1.571147     -0.709132
O       9.73177      3.90540     11.51504         0.357550     -0.200448      0.139510
O       9.76113     15.52851     11.57647        -0.361826     -0.288529     -0.036368
O       9.62109      7.80396      2.69235         0.397087      0.408050     -0.034157
O       9.73548      7.80017     16.14842        -0.142877     -0.192218     -0.506198
O       9.81932      7.73584      7.14612        -0.078805     -0.125124      0.284419
O       9.65828      7.85106     11.43531         0.545283     -1.984460      0.622975
O       9.74119     11.69233      2.79093         0.292127      0.086102     -0.114622
O       9.72013     11.70619     15.84014         0.080950     -0.133883      0.205761
O       9.73070     11.66446      7.17677         0.044847      0.376616     -0.230312
O       9.78030     11.65548     11.58437        -0.388341      0.341332      0.357158
