  # total energy = -7879.03991696 
CRSYTAL
PRIMVEC
    15.6000000000000000    0.0000000000000000    0.0000000000000000
     0.0000000000000000   15.6000000000000000    0.0000000000000000
     0.0000000000000000    0.0000000000000000    17.640000000000000
PRESSURE
-6.19743 -6.1276 -2.37134 -0.080921 0.160524 -0.024164
PRIMCOORD
320 1
Pb       3.79237      3.79985      4.44417         0.387449      0.172875     -1.213281
Pb       3.96338      3.97127     17.61475        -0.168305     -0.330874     -0.533008
Pb       3.79469     15.46047      4.36685        -0.136812      0.304420     -0.952468
Pb       3.77411     15.57147      0.01557         0.051862      0.087835     -0.700664
Pb      15.59093      3.87034      4.37974         0.113408      0.232151     -0.691969
Pb       0.01922      4.00449      0.01203         0.035488     -0.119678     -0.775231
Pb      15.55873     15.53152      4.34315         0.184211     -0.348398     -0.515215
Pb      15.42568     15.59758     17.61799         0.463307      0.164734     -0.664346
Pb       3.81476      4.01036      8.84175        -0.102656     -0.237357     -0.945651
Pb       3.87714      0.01117      8.76049        -0.319111      0.327706     -0.740797
Pb      15.54386      3.98146      8.84774         0.299051     -0.123840     -1.340916
Pb      15.55851     15.58329      8.69306        -0.287709      0.239972     -0.599467
Pb       3.94695      3.65197     13.28178         0.348456      0.603501     -0.779636
Pb       3.82358     15.52410     13.15901         0.773123     -0.198597     -0.348507
Pb       0.01656      3.85199     13.19933         0.119453      0.336044     -0.521836
Pb      15.54028      0.04124     13.18685        -0.320406      0.085440     -0.471637
Pb       3.91950      7.77339      4.45721        -0.104683     -0.234259     -0.632359
Pb       3.98642      7.77807     17.63478        -0.208356      0.222702     -0.835626
Pb       0.07611      7.88128      4.38515        -0.039089     -0.164848     -0.648631
Pb       0.08772      7.80368     17.52079        -0.114811     -0.043031     -0.695546
Pb       3.90542      7.86754      8.84799        -0.063571      0.155227     -0.662116
Pb      15.50693      7.80217      8.91233         0.067536     -0.181029     -1.179191
Pb       3.92783      7.73408     13.17957         0.088224      0.028916     -0.423442
Pb       0.11485      7.82346     13.20295        -0.184192     -0.104979     -0.481873
Pb       3.91671     11.65995      4.38104        -0.168209     -0.318588     -0.652849
Pb       3.88413     11.69208     17.63048         0.168881     -0.110986     -0.998521
Pb      15.55661     11.64817      4.31201         0.278945      0.210117     -0.222754
Pb      15.57206     11.69453     17.47601         0.316489     -0.258381     -0.324478
Pb       3.82832     11.69502      8.85806         0.429201     -0.482731     -0.817264
Pb      15.51256     11.83193      8.79469        -0.376624     -0.148565     -1.118390
Pb       3.83225     11.82625     13.17572         0.164690     -0.261722     -0.721870
Pb      15.44894     11.73639     13.19346         0.736419     -0.237344     -0.801287
Pb       7.81125      3.63930      4.54338        -0.231799      0.599043     -1.292817
Pb       7.74420      3.89351     17.62970         0.519155     -0.417717     -0.513820
Pb       7.63025     15.44730      4.43252         0.072597      0.084982     -0.734115
Pb       7.69168      0.02159     17.60100         0.164751      0.027120     -0.242119
Pb       7.57281      3.94916      8.81742         0.184586      0.039353     -0.679301
Pb       7.77667      0.00225      8.81225         0.284095      0.019063     -1.271307
Pb       7.98858      3.97797     13.20250        -0.554222     -0.151674     -0.423001
Pb       7.81436      0.09526     13.19994         0.028525     -0.231512     -0.643652
Pb       7.92399      7.69513      4.42159        -0.267457     -0.547361     -0.956340
Pb       7.79121      7.86180      0.05573         0.339952     -0.377423     -1.056600
Pb       7.70481      7.84247      8.78091         0.057848     -0.275084     -0.486404
Pb       7.72755      7.89665     13.15156         1.124949     -0.185410      0.074955
Pb       7.83119     11.65884      4.42846        -0.043057      0.106909     -0.722861
Pb       7.77107     11.69435     17.62140        -0.146791      0.137896     -0.941987
Pb       7.83043     11.75866      8.86936         0.090020     -0.122797     -1.000501
Pb       7.76763     11.82578     13.17975        -0.089900     -0.451197     -0.583798
Pb      11.73080      3.83848      4.42492        -0.059627     -0.068614     -1.021428
Pb      11.75276      3.81731      0.05002        -0.026006     -0.008257     -0.905292
Pb      11.55266     15.39036      4.44552         0.171221      0.460008     -0.583948
Pb      11.47485     15.47109      0.03288         0.162869      0.163442     -0.679844
Pb      11.56688      3.93916      8.82524         0.099708     -0.170495     -1.159369
Pb      11.82314      0.03652      8.74991        -0.135844      0.087441     -0.846202
Pb      11.81928      3.93637     13.18423        -0.475679     -0.015972     -0.211534
Pb      11.68028     15.56019     13.16580        -0.548630      0.352323     -0.803918
Pb      11.73101      7.66370      4.32177         0.282875      0.099991     -0.958710
Pb      11.63948      7.69072     17.53617         0.203418     -0.040893     -0.406232
Pb      11.57300      7.81475      8.74668         0.258889     -0.331053     -0.459652
Pb      11.71983      7.71778     13.20870        -0.235801      0.103758     -0.700278
Pb      11.68780     11.56505      4.24080        -0.164838      0.075885      0.143862
Pb      11.76163     11.57969     17.48813        -0.632884      0.276007      0.125571
Pb      11.74656     11.66363      8.72091        -0.361912      0.700219     -0.264995
Pb      11.59405     11.66464     13.11090        -0.230387     -0.300165     -0.550139
Ti       1.86539      1.86369      2.30345         0.999084      0.008059      1.259536
Ti       1.95594      1.95549     15.58780        -0.194755     -0.320862      1.557419
Ti       1.86493     13.54741      2.23968        -0.402313      0.666946      0.215696
Ti       1.96155     13.60640     15.54696         0.052831      0.091272     -0.087419
Ti      13.58589      1.86145      2.44152         0.027901      0.208603      1.395987
Ti      13.70128      1.97849     15.53217        -0.548802      0.403681      1.358461
Ti      13.45734     13.60116      2.28609         1.015521      0.307663      1.404372
Ti      13.60014     13.60773     15.43452         0.205877      1.045181      1.686843
Ti       1.82391      1.96066      6.73800         0.413891     -0.666053      0.792702
Ti       1.90874     13.58360      6.73241        -0.642940      1.109493     -0.298072
Ti      13.63765      1.99450      6.58645        -0.277117     -1.035148      1.197216
Ti      13.57745     13.67148      6.61767         0.409408     -0.165945      1.176449
Ti       2.00162      1.89158     11.10663         0.089987      1.299450      0.334731
Ti       1.83567     13.69881     11.02966         0.277493     -1.088366      3.483667
Ti      13.64290      2.02118     11.08496        -0.566155     -0.644228      2.134401
Ti      13.60124     13.68516     11.12671        -0.490816      0.185775     -0.684795
Ti       1.99949      5.83049      2.36955         0.108458      0.036393      0.837014
Ti       2.09414      5.79217     15.45573        -1.032449      0.504810      0.467823
Ti      13.74792      5.79987      2.24210        -0.006239      0.413317      1.814631
Ti      13.70196      5.86358     15.47967         0.157887     -0.293095      2.207823
Ti       1.94846      5.91918      6.71161        -0.359123     -0.251827      0.965385
Ti      13.59779      5.86864      6.66728         0.799099     -0.421725     -0.156421
Ti       1.97653      5.77941     11.15435         0.440621      0.101981      0.256737
Ti      13.69753      5.82671     11.06127        -0.457961      0.773852      1.766713
Ti       1.96156      9.74104      2.28949        -0.264868     -0.537893      0.843418
Ti       2.01820      9.72227     15.41832        -0.311649     -0.274421      2.538461
Ti      13.63719      9.76862      2.27821         0.797023     -0.937827      0.677749
Ti      13.61757      9.77763     15.52179         0.354794     -1.737027      0.652909
Ti       1.86649      9.75274      6.89162         0.343548     -0.283775     -1.621187
Ti      13.56436      9.75992      6.73219         0.723258     -0.047872      1.184240
Ti       1.93419      9.71198     11.17239         0.502470      0.636808      0.454007
Ti      13.60455      9.72846     11.14396         0.102654     -0.259985      2.063621
Ti       5.81000      1.87548      2.28291        -0.230158      0.485000      0.353612
Ti       5.80810      1.92028     15.60768         0.461851     -0.302985      3.912592
Ti       5.77666     13.50282      2.27837         0.577692      0.240188      0.943348
Ti       5.87569     13.60605     15.55414        -0.226916     -0.107841      0.958042
Ti       5.77780      1.90865      6.71385         0.096270      0.024645      2.151885
Ti       5.78200     13.68760      6.76389         0.360915     -0.423667     -0.309356
Ti       5.89733      1.95944     11.08470        -0.094133     -0.232827      3.586745
Ti       5.85493     13.67229     10.98660        -0.018529      0.103348      3.075341
Ti       5.90104      5.83255      2.31217         0.325718     -0.610909      3.085047
Ti       5.99522      5.82068     15.47966        -0.265359     -0.073784     -1.188832
Ti       5.86891      5.83823      6.70692        -0.666189     -0.281040     -0.892868
Ti       5.87767      5.83257     11.23718         0.135562     -0.648120      1.604300
Ti       5.87091      9.65854      2.33649        -0.525269     -0.162523      0.460960
Ti       5.88851      9.62844     15.41666         0.243468      0.816247      1.474634
Ti       5.86101      9.85534      6.83149        -0.776322     -0.037307      1.287547
Ti       5.87438      9.69734     11.14856        -0.089072      1.315941      0.422806
Ti       9.68069      1.82848      2.38062         0.113816      0.504999      0.514822
Ti       9.82487      1.94404     15.60944        -0.295600     -0.004468      1.383815
Ti       9.69085     13.52549      2.25409        -0.714568      0.705063     -0.173941
Ti       9.72935     13.61161     15.48919        -0.294409      0.255458      1.517063
Ti       9.68978      1.93891      6.73266         0.357548     -0.759467      1.046055
Ti       9.70617     13.60740      6.73926        -0.023597      0.054509      0.715971
Ti       9.78971      2.00116     11.05040        -0.399805     -0.556479      1.761030
Ti       9.70125     13.63702     11.01426         0.482126      0.379637      2.145097
Ti       9.80316      5.76087      2.24660        -1.101384     -0.420866      0.534597
Ti       9.84077      5.75639     15.53021         0.010613      0.273214      2.817318
Ti       9.70480      5.80503      6.75352        -0.069306      0.072193      0.033610
Ti       9.77186      5.85700     11.05563        -0.300300      0.623945      1.050769
Ti       9.70356      9.67821      2.26025         0.337879      0.500946      0.684956
Ti       9.76767      9.69092     15.53894        -0.594017     -0.194013     -0.989234
Ti       9.73653      9.69341      6.75275        -0.160250      0.971007      0.744745
Ti       9.80117      9.72497     11.05983        -1.207335     -0.431540      3.465871
O       1.95471      1.86267      0.57586        -0.081526      0.047555     -0.700510
O       1.96681      1.91774     13.82950        -0.143802      0.022762     -0.778388
O       1.87628     13.59473      0.45458         0.244718     -0.412424     -0.052826
O       2.01255     13.57607     13.75405        -0.100188      0.462888      0.107867
O      13.60406      2.00945      0.74403         0.147437     -0.296783     -1.832888
O      13.68021      2.02103     13.78314         0.233563     -0.358822     -0.617090
O      13.40969     13.52679      0.56779         0.298372      0.215336     -0.942532
O      13.57637     13.59432     13.69955         0.026813      0.091502     -0.817462
O       1.88750      1.77495      4.98637        -0.003283      0.299319      0.337200
O       1.85956     13.53828      4.97290         0.607547      0.212199      0.015685
O      13.66963      1.64952      4.86045         0.099325      1.188906     -0.095749
O      13.65791     13.61249      4.90447        -0.373000     -0.016566     -0.893940
O       2.00773      1.95750      9.38160        -0.165294     -0.049816      0.031564
O       1.82720     13.77570      9.35315         0.136371     -0.499936     -1.464997
O      13.56498      1.86593      9.41556        -0.124599      0.165867     -1.863442
O      13.65742     13.78421      9.34406         0.008691     -0.431074      0.202324
O       2.15132      5.86616      0.62852        -0.072601     -0.220799     -0.580811
O       1.95198      5.80015     13.69139         0.052670     -0.081894      0.027673
O      13.75767      5.64302      0.51079        -0.266922      0.181575     -0.160196
O      13.65251      5.83543     13.76476         0.195915     -0.082524     -1.318086
O       1.89207      6.04611      4.97296        -0.064966     -0.538896      0.059058
O      13.73171      5.86158      4.87987        -0.597882     -0.071429      0.940622
O       2.00995      5.78953      9.34770        -0.283953      0.043886      0.754637
O      13.69466      5.85833      9.32950        -0.158629     -0.014373     -0.575830
O       1.98247      9.68646      0.55087         0.022673      0.046738     -0.560291
O       1.90502      9.66634     13.72505         0.089958      0.117834     -1.349359
O      13.65185      9.81636      0.55575         0.017156      0.153579     -0.902054
O      13.57451      9.75864     13.77478         0.192263      0.178573     -0.192684
O       1.85843      9.64333      5.08866         0.180381      0.598280      0.738273
O      13.60322      9.88285      5.03154        -0.153173     -0.450641     -0.906251
O       2.02373      9.59682      9.39844        -0.290640      0.509079     -0.290494
O      13.50769      9.63600      9.43989         0.389417      0.048354     -1.125870
O       5.86933      1.93286      0.49173        -0.213787      0.154616      1.136152
O       5.77581      1.95436     13.94436        -0.066393     -0.286893     -2.511162
O       5.88409     13.35433      0.55883        -0.280129      0.191072     -0.766066
O       5.94348     13.64484     13.81588        -0.068874      0.025050     -0.227200
O       5.82461      1.73478      5.02750        -0.138413      0.368151     -1.422804
O       5.84796     13.66199      4.92906        -0.177385     -0.131866      0.767903
O       5.86860      2.02264      9.41179         0.269662      0.001091     -2.782524
O       5.66817     13.70330      9.28673         0.425923     -0.062619     -0.978835
O       5.81936      5.91708      0.58013        -0.344317     -0.152500     -0.940561
O       5.97971      5.78228     13.65249        -0.083675      0.027789      1.428392
O       5.85885      5.78560      4.94435         0.215187      0.394532      0.829816
O       5.88102      5.74714      9.48737         0.156145      0.103489     -0.590983
O       5.83179      9.61151      0.57407         0.047252     -0.181092     -0.043672
O       6.06186      9.69636     13.69686        -0.408163      0.128776     -0.192394
O       5.78481      9.97644      5.12563         0.234063     -0.381169     -1.108628
O       5.75965      9.73784      9.33704         0.387229     -0.299917      0.674787
O       9.58076      1.91861      0.64653         0.529558     -0.339692     -0.256675
O       9.87135      2.00866     13.89211        -0.220961     -0.166601     -0.876281
O       9.70886     13.63498      0.47943         0.246546     -0.191516      0.302551
O       9.62616     13.72151     13.75793         0.450329     -0.072594     -0.582356
O       9.70438      1.98897      5.00534         0.195499      0.029512     -0.981261
O       9.64669     13.52106      4.99518        -0.251130     -0.049842     -0.628827
O       9.78786      1.91312      9.31998        -0.174708      0.271421     -1.074410
O       9.59076     13.62343      9.31555         0.123076      0.371466     -1.341518
O       9.80632      5.87907      0.48942         0.072489     -0.097814      0.428764
O       9.88989      5.61802     13.84154        -0.119953      0.211762     -1.417878
O       9.63040      5.87919      4.98633         0.379774      0.000916     -0.094705
O       9.69472      5.95996      9.27747         0.267824     -0.540684      0.123010
O       9.67887      9.58532      0.52635         0.032723      0.253338     -0.576531
O       9.77999      9.73502     13.74250         0.183640      0.083606      1.154683
O       9.83186      9.81520      5.01924        -0.257945     -0.048684     -0.543686
O       9.74686      9.74391      9.38244         0.091309     -0.239410     -2.268170
O       3.89603      1.98456      2.77441         0.399491     -0.416349      0.002981
O       3.84415      1.90317     16.05829         0.103705      0.262521     -0.199634
O       3.91769     13.54889      2.61993        -0.498459      0.036082      0.394156
O       3.89599     13.61178     15.87550        -0.077334     -0.511866      0.441623
O       0.06926      1.83901      2.72567        -1.170213     -0.314821      0.277482
O       0.00132      1.98554     16.04658        -0.068375     -0.419548     -0.173364
O       0.01576     13.68853      2.60222        -0.865665     -0.417334      0.140725
O      15.54396     13.55700     15.73305        -0.166447     -0.234786      0.588388
O       3.83633      1.88609      7.20393         0.155828      0.083193     -0.310100
O       3.83044     13.81837      7.12000         0.154057     -0.379355      0.033819
O      15.50803      1.97621      7.31022         0.065123     -0.230740     -0.544030
O      15.51765     13.57527      6.95847        -0.009384     -0.085851      1.166573
O       3.97144      1.93053     11.55641        -0.901357      0.080328      0.286145
O       3.99847     13.54185     11.57544        -0.842367      0.226011     -0.383700
O      15.53770      2.01901     11.48128         1.318875     -0.280123      0.421027
O      15.54261     13.57683     11.46361         1.178802      0.634456      0.332699
O       3.90273      5.81321      2.91795        -0.209963     -0.055259     -0.398177
O       3.96870      5.74758     15.76308         0.009443      0.105382      0.611485
O      15.58530      5.75268      2.65442         0.625806     -0.046632      0.095147
O       0.06734      5.79731     15.98007        -0.375671      0.003199     -0.044679
O       3.81454      5.71637      7.06783         0.051537      0.099261      0.244441
O      15.49932      5.85365      7.20543         0.663219      0.105313      0.217530
O       3.95825      5.92732     11.54974        -0.227499     -0.121319     -0.058278
O       0.06505      5.80975     11.50711        -0.151176      0.123842     -0.115100
O       3.82901      9.70155      2.71327         0.462245     -0.102631      0.404334
O       3.90852      9.62417     15.88892         0.226876      0.214194     -0.182463
O       0.01936      9.74327      2.76278        -0.243125     -0.070897      0.069221
O       0.01133      9.73337     15.98404        -0.436223      0.006531     -0.280361
O       3.95874      9.80331      7.23691        -0.866431      0.054629      0.366054
O      15.55705      9.79555      7.17691        -0.305713     -0.327750      0.630654
O       3.99199      9.74313     11.59311        -0.433664      0.013687     -0.082311
O       0.02174      9.76699     11.62795        -0.791820     -0.459498     -0.421565
O       7.76995      1.85360      2.87726        -0.196205     -0.102338     -0.021149
O       7.78459      1.85533     16.13352         0.070579      0.281542     -0.814056
O       7.76593     13.47715      2.65945        -0.097701      0.205271      0.496997
O       7.78887     13.61345     16.01308         0.282837      0.129435     -0.097007
O       7.79102      1.92948      7.02962        -0.292472      0.395412      0.616023
O       7.66492     13.64925      7.18110         0.673034     -0.247104      0.278593
O       7.73974      1.83435     11.67326         0.723645      0.728878     -0.639339
O       7.84653     13.67041     11.47913        -0.714912      0.306923     -0.161180
O       7.83945      5.95408      2.67170        -0.108624      0.445783      0.000791
O       7.82707      5.81392     15.97057         0.253475     -0.212926     -0.159648
O       7.77071      5.89174      7.12605         0.010310     -0.158335      0.441959
O       7.90360      5.94034     11.61188        -0.654704     -0.636335     -0.337670
O       7.76614      9.71470      2.75080         0.486209      0.026639     -0.022139
O       7.80714      9.45017     15.95827         0.197827      1.245105     -0.049688
O       7.81291      9.81490      7.23437        -0.430108     -0.303665     -0.094164
O       7.88960      9.67093     11.55224        -0.141903      0.007179     -0.542932
O      11.66994      2.01444      2.86136        -0.462937     -0.061480     -0.129573
O      11.70762      1.98423     16.09540         0.688943     -0.445104     -0.071696
O      11.55310     13.60545      2.73478         1.423774     -0.424844      0.168452
O      11.66474     13.72082     15.87973         0.501582     -0.606760     -0.094302
O      11.74492      1.85872      7.11471        -0.574976      0.435296      0.149943
O      11.61588     13.57759      6.97918         0.767047      0.457599      0.503029
O      11.64732      2.05398     11.47475         0.970055     -0.031936      0.202661
O      11.68786     13.66756     11.37708        -0.207721      0.183147      0.636791
O      11.68676      5.80745      2.70721         0.287661     -0.263321      0.244404
O      11.80586      5.74975     15.97855        -0.743504      0.377687      0.016551
O      11.64167      5.83566      7.19443         0.387375      0.060386     -0.133123
O      11.68479      5.80326     11.60686         0.411669     -0.107716     -0.600968
O      11.79595      9.72160      2.71587        -0.935212      0.181604      0.090533
O      11.67899      9.68248     15.99597         0.331641      0.238512     -0.053189
O      11.60235      9.86358      7.32137         0.860199     -1.231611     -0.742246
O      11.66932      9.70815     11.68611         0.738353      0.261890     -0.596069
O       1.93399      3.82045      2.83976        -0.049863      0.472131      0.026679
O       1.91676      3.86836     15.99814         0.566036      0.027115     -0.211632
O       1.92002     15.46703      2.68464         0.901979      0.559687      0.299033
O       1.96199     15.52062     16.02299        -0.445410      0.392197     -0.220405
O      13.82716      3.75959      2.86689        -1.042957      0.888615      0.081935
O      13.62993      3.89123     15.87803         0.466468     -0.494498      0.275936
O      13.50965     15.50270      2.77386         0.252363     -0.198522     -0.339184
O      13.77353     15.57692     15.87460        -0.437199     -0.165345     -0.105281
O       1.81357      3.83760      7.10703         0.229698      0.574357      0.024377
O       1.74408     15.53608      7.21173         0.544649      0.564280     -0.157027
O      13.61029      3.85382      6.96312        -0.207828      0.617371      0.157142
O      13.59487     15.58944      6.99236         0.206058     -0.515374      0.777144
O       2.05750      3.90070     11.52722        -0.164690     -0.413504      0.085172
O       2.11030      0.01671     11.49217        -0.988381     -0.884952      0.113406
O      13.63171      3.97511     11.48078         0.335363     -0.829573      0.070607
O      13.68504      0.01198     11.52741        -0.209359      0.143658      0.655097
O       1.89178      7.72913      2.75936         0.086204      0.463551      0.041244
O       1.90566      7.70918     15.84113         0.330762      0.320965      0.230365
O      13.70956      7.74283      2.66346        -0.347193      0.005114     -0.027730
O      13.62786      7.77462     15.99024         0.280409      0.249462     -0.265718
O       1.99524      7.86518      7.12095        -0.227361     -0.990428      0.740813
O      13.58015      7.73986      7.05952        -0.237667      1.265422      0.346754
O       2.01282      7.86413     11.58297        -0.367084     -1.273584      0.188349
O      13.67133      7.72658     11.58169         0.022800      0.566065     -0.212014
O       1.89723     11.66658      2.72331         0.293321     -0.178829     -0.059684
O       1.91156     11.63355     15.84721         0.372588      0.139800      0.368321
O      13.72155     11.69500      2.74399        -0.606119      0.178339     -0.069290
O      13.55515     11.63179     15.97336         0.232903      0.949520     -0.368820
O       1.90485     11.75391      7.24036         0.371968     -0.693424      0.591358
O      13.60477     11.66669      7.13913        -0.092761      0.130823      0.613125
O       1.89957     11.64690     11.58758         0.432728      1.010626     -0.458702
O      13.65425     11.69409     11.47376        -0.244370     -0.259868      0.178769
O       5.90724      3.92383      2.82424        -0.073457     -0.547429     -0.543126
O       5.89030      3.85643     15.99151        -0.240925      0.336804      0.127473
O       5.82553     15.57887      2.67590        -0.002476     -0.574715     -0.048187
O       5.75864     15.52812     16.16615         0.312275     -0.009318     -0.656803
O       5.87918      3.90458      7.14455        -0.133610     -0.506221      0.261684
O       5.90788      0.01131      7.17851        -0.412046      0.167758      0.376437
O       5.90399      3.85437     11.61239        -0.009652      0.562414     -0.187180
O       5.83306     15.57771     11.54362         0.011302     -0.547208     -0.323964
O       5.79576      7.75280      2.89220         0.091211      0.517447     -0.335280
O       5.91045      7.73313     15.83857        -0.684300     -0.377260      0.254269
O       5.69565      7.67639      7.20577         0.712563      1.118663      0.024694
O       5.92269      7.82078     11.72622        -0.413990     -0.445780     -1.016882
O       5.74296     11.53818      2.68274         0.230980      0.825561      0.468378
O       5.91240     11.62193     15.93256        -0.074238     -0.327302      0.067014
O       5.74694     11.79888      7.23061         0.042722     -0.452211      0.132861
O       6.01896     11.62492     11.59299        -0.355853      0.714236     -0.616217
O       9.56778      3.87137      2.62714         0.671026      0.379692      0.437984
O       9.82461      3.86867     16.05770        -0.579587      0.059084      0.111497
O       9.83552     15.49802      2.69111        -0.539655      0.313393      0.208491
O       9.84596     15.59886     15.99288        -0.628281     -0.330626     -0.121191
O       9.79117      3.91697      7.04977        -0.136972     -0.454980      0.602213
O       9.62463     15.55587      7.00336         0.301195      0.188205      0.635673
O       9.65471      3.90788     11.54938         0.242447     -0.074380     -0.549587
O       9.80009      0.14636     11.57189        -0.097561     -1.269789      0.072262
O       9.81668      7.89186      2.73365        -0.057662     -1.255752      0.471779
O       9.84408      7.74470     15.95091         0.163755     -0.380010     -0.156578
O       9.71062      7.79794      7.06910         0.169637      0.384851      0.418034
O       9.81491      7.72953     11.52037         0.409575      0.523014     -0.228148
O       9.79455     11.65564      2.63949        -0.250124     -0.820515      0.248217
O       9.74669     11.66121     15.87450        -0.053234     -0.017461      0.123021
O       9.77728     11.71174      7.26765        -0.891899     -0.234305      0.055492
O       9.73417     11.73909     11.43965         0.342664     -0.276791      0.148246
