  # total energy = -7881.48865185 
CRSYTAL
PRIMVEC
    15.3600000000000000    0.0000000000000000    0.0000000000000000
     0.0000000000000000   15.3600000000000000    0.0000000000000000
     0.0000000000000000    0.0000000000000000    17.440000000000000
PRESSURE
1.57897 1.56249 2.19355 -0.136798 -0.319449 0.050605
PRIMCOORD
320 1
Pb       3.89868      3.82531      4.39108        -0.275099     -0.225899      0.192377
Pb       3.92383      3.81654     17.43873        -0.400180      0.101918     -0.343759
Pb       3.78277      0.02115      4.32048         0.090494      0.259744     -0.226970
Pb       3.70433     15.31676     17.35371         0.384621      0.380564     -0.011041
Pb       0.06273      3.74359      4.36030         0.061882      0.036862      0.105638
Pb       0.08447      3.95441     17.43117        -0.302070     -0.301252     -0.304946
Pb       0.10103      0.02879      4.33423        -0.341632      0.001505     -0.024044
Pb      15.23663     15.35093     17.37867         0.190946      0.324572     -0.171838
Pb       3.75096      3.74502      8.73398        -0.060365      0.417200     -0.376406
Pb       3.84939      0.00209      8.58071        -0.201281     -0.215492      0.414712
Pb      15.13140      3.97058      8.63073         0.886622     -0.620470     -0.160285
Pb      15.19126     15.32858      8.71604         0.432716      0.311242     -0.349690
Pb       3.78559      3.65957     13.10413         0.333866      0.316380     -0.358208
Pb       3.72573      0.00456     12.93342         0.572405     -0.457902      0.285826
Pb       0.03955      3.78821     13.05312         0.067281      0.205213     -0.417518
Pb      15.32370     15.27255     13.07518         0.101911      0.068105     -0.236595
Pb       3.85767      7.66177      4.33036        -0.116201      0.185688     -0.241734
Pb       3.81762      7.57377     17.40269        -0.151725      0.714466      0.159335
Pb       0.14203      7.84296      4.34337        -0.451145     -0.866996     -0.276579
Pb      15.20810      7.69134      0.00429         0.321310      0.029213     -0.340235
Pb       3.82013      7.73832      8.62116         0.148677     -0.738328      0.342607
Pb       0.01961      7.60279      8.62638        -0.301749      0.279260      0.141376
Pb       3.84213      7.55374     12.99508        -0.307313      0.114293      0.230151
Pb      15.34039      7.63152     13.12387         0.149703      0.345240     -0.869385
Pb       3.81414     11.59513      4.23416        -0.070318     -0.574077      0.141859
Pb       3.97935     11.62903     17.39973        -0.054410     -0.938386      0.257282
Pb       0.07555     11.54736      4.36694        -0.224124      0.450425     -0.419688
Pb      15.27751     11.56374     17.30402        -0.170582     -0.367414      0.158146
Pb       3.88151     11.52813      8.61724         0.128788     -0.306490      0.034286
Pb      15.28849     11.44473      8.70828         0.435866     -0.171067      0.082583
Pb       3.92139     11.43557     13.13375        -0.222580      0.264977     -0.330463
Pb       0.18817     11.58056     13.04388        -0.516256     -1.085599     -0.150786
Pb       7.72402      3.76217      4.32423        -0.715978      0.068533     -0.283847
Pb       7.68408      3.86943      0.00619        -0.078202      0.095942     -0.788033
Pb       7.70125      0.00831      4.40585        -0.223000     -0.129944     -0.601963
Pb       7.54577      0.07897     17.30221         0.140094     -0.319889      0.171898
Pb       7.58226      3.85293      8.77559        -0.256780      0.134242     -0.680087
Pb       7.66033     15.26351      8.76206        -0.203825     -0.141328     -0.737043
Pb       7.88531      3.92327     13.04136        -0.848073     -0.228323      0.814928
Pb       7.68928      0.13005     13.02065        -0.818730     -0.554886     -0.246286
Pb       7.74416      7.52049      4.33152        -0.644636      0.598702     -0.382007
Pb       7.59349      7.79370     17.41153         0.041423     -0.900690     -0.032917
Pb       7.72109      7.66396      8.67289        -0.814449      0.062871      0.030013
Pb       7.62611      7.73230     13.04340         0.057284     -0.537055     -0.028305
Pb       7.64288     11.51881      4.32508        -0.093789     -0.356712      0.008261
Pb       7.73909     11.53577     17.38026        -0.824707      0.553511      0.007317
Pb       7.54607     11.60565      8.56025        -0.236428     -0.974161      0.598821
Pb       7.78885     11.49118     12.99434        -0.885731      0.645594     -0.570163
Pb      11.43852      3.78121      4.30922         0.274487      0.346647     -0.518630
Pb      11.73781      3.90472      0.09148        -0.092197     -0.153257     -0.229962
Pb      11.56473     15.25492      4.34793        -0.184909     -0.023283     -0.104554
Pb      11.28581     15.26197      0.03313         0.096458      0.186491     -0.355099
Pb      11.40115      3.87479      8.68985         0.112647      0.061443     -0.575506
Pb      11.51703      0.01701      8.75616        -0.237249     -0.266599     -0.585605
Pb      11.60849      3.71702     13.05556        -0.566068      0.170721     -0.014345
Pb      11.54978     15.32432     13.04348         0.072993      0.060765     -0.326750
Pb      11.53416      7.58469      4.36291        -0.060614      0.382172     -1.102594
Pb      11.52353      7.68349     17.39396        -0.181355     -0.129767      0.242705
Pb      11.54144      7.71609      8.70938         0.115099      0.151581     -0.563226
Pb      11.35417      7.62911     13.12395         0.425050     -0.088634     -0.233043
Pb      11.58956     11.43746      4.26147        -0.701429     -0.170525      0.252750
Pb      11.40099     11.40709     17.35893         0.275686      0.115007     -0.470807
Pb      11.61403     11.44979      8.58526        -0.826343     -0.201971     -0.187210
Pb      11.55128     11.46833     13.03524         0.278573     -0.108017     -0.396233
Ti       1.94142      1.98685      2.27455        -0.340646     -0.868348      0.602045
Ti       1.86776      1.85642     15.39881         0.234572      1.056167      0.224125
Ti       1.83072     13.41872      2.28128         0.206772      0.171618      0.145613
Ti       1.86564     13.33818     15.47371         0.133854      0.958135     -1.121715
Ti      13.36370      1.87644      2.41573         1.436925      0.432650      1.018095
Ti      13.44851      1.95357     15.32420        -0.549141     -0.100910      0.998626
Ti      13.34910     13.40510      2.20278         0.832908      0.622151      2.001734
Ti      13.28728     13.52751     15.42743        -0.130555     -1.325123     -0.286267
Ti       1.83269      1.84661      6.85628         0.528187      0.831315     -1.229382
Ti       1.86036     13.37414      6.72197         0.481515      0.661582      0.337749
Ti      13.31746      1.88895      6.65448         1.134380     -0.062545     -0.469499
Ti      13.44571     13.36993      6.66770        -0.746805      1.062879     -0.139166
Ti       1.88056      1.77806     10.97570         0.303349      0.721374     -0.399143
Ti       1.81725     13.29509     10.91010         1.407315      0.008917     -0.647296
Ti      13.48680      1.85593     11.04758        -0.642899      0.036867     -0.142013
Ti      13.42644     13.41634     10.95731        -0.793742     -0.431812      0.502978
Ti       1.94362      5.74344      2.34737        -0.143252      0.570315      0.290373
Ti       1.90719      5.68543     15.33322        -0.136388      0.796478      0.231776
Ti      13.56059      5.71955      2.40953        -1.262374      1.027000      0.132306
Ti      13.44241      5.76964     15.30850         0.197030      0.002155      1.234008
Ti       1.87020      5.71124      6.69220         0.910805     -0.389488      0.712389
Ti      13.34178      5.72056      6.53106         0.418255      0.637402      1.490635
Ti       1.91833      5.62388     11.03124        -0.656906      1.175633      0.534937
Ti      13.33527      5.62938     11.08482         0.607034      1.521359      3.066883
Ti       1.77631      9.63496      2.24777         2.073594     -0.339906      1.136144
Ti       1.84332      9.55899     15.52732         0.732646     -0.410106     -1.205344
Ti      13.37812      9.64435      2.29587        -0.463590     -2.061830     -0.394175
Ti      13.36815      9.60739     15.34373        -0.178386     -0.244013     -0.517865
Ti       1.84992      9.57981      6.69248         0.707171     -0.975188     -0.423373
Ti      13.40822      9.58472      6.59828        -0.632261     -1.326500      0.357061
Ti       1.97883      9.47784     11.03145        -1.583053     -0.286238      0.310449
Ti      13.37752      9.45093     11.13776         1.069558      0.157881     -0.224267
Ti       5.68851      1.87643      2.25415         0.787609     -0.007175      0.853038
Ti       5.66773      1.97805     15.41037         0.025308     -0.515956      1.914072
Ti       5.77130     13.42675      2.36000        -0.063311      0.348788      0.789046
Ti       5.71178     13.49822     15.34319         0.822009     -0.493199     -0.384397
Ti       5.76187      1.84944      6.69297        -0.718342      0.042336      1.237054
Ti       5.65104     13.43640      6.57334         0.269793     -1.601193      0.471386
Ti       5.69593      1.88304     10.88298        -0.456967      0.179146     -0.239153
Ti       5.63967     13.39741     11.01097         0.481708     -0.061924      1.213937
Ti       5.66961      5.69888      2.35279         0.300976      0.728909     -0.674012
Ti       5.71074      5.79913     15.45649         0.981743     -0.361049      0.171153
Ti       5.70831      5.59734      6.68292        -0.253506      1.719172      1.550074
Ti       5.73061      5.66233     11.05181        -0.407418      0.110305     -1.050022
Ti       5.61192      9.62096      2.32716         0.425741     -1.160516      0.067685
Ti       5.73859      9.61262     15.39109        -1.526464      0.170598      2.151711
Ti       5.65685      9.45117      6.62440         0.651675      1.203758      0.586420
Ti       5.73407      9.57518     11.07106         0.264991      0.674925     -0.944866
Ti       9.53050      1.85721      2.30046        -0.208556     -0.576383     -0.587055
Ti       9.66160      1.91832     15.49358        -0.314060      0.299198      1.470002
Ti       9.56225     13.37722      2.35248        -0.572928      0.409721      1.828075
Ti       9.52348     13.42548     15.20564         0.187698      0.415537      0.869961
Ti       9.56938      1.86153      6.66587        -0.866529     -0.192520      1.313357
Ti       9.51465     13.36332      6.69569         0.632703      0.676810      0.075034
Ti       9.53917      1.89689     10.91710         0.732338      0.044132      1.586016
Ti       9.57724     13.47712     10.98530        -1.148224     -0.415651      1.304095
Ti       9.54095      5.68478      2.24955         1.042160      1.107074      0.883134
Ti       9.66998      5.70861     15.52416        -1.458325      0.340285      0.410904
Ti       9.50783      5.72063      6.58877         0.450783      0.208880      0.136388
Ti       9.57203      5.68540     10.98904        -0.319283      0.494227      0.561419
Ti       9.46068      9.54691      2.28173         0.341244     -0.395619      1.793671
Ti       9.49025      9.60414     15.37605         0.953045     -1.406026      0.223287
Ti       9.46841      9.54410      6.72217         0.057432      0.365835      1.757632
Ti       9.58848      9.60352     11.05118        -0.282274     -0.248053     -0.170386
O       1.83379      1.97308      0.51965         0.075719      0.000335     -0.248307
O       1.97024      1.88008     13.65066        -0.354110     -0.091800     -1.289601
O       1.76559     13.41165      0.53081        -0.078471      0.305043     -1.168328
O       1.77478     13.31835     13.66483         0.140208      0.172011      0.554336
O      13.41843      2.04578      0.72541         0.404788     -0.421727     -2.063220
O      13.50072      1.98145     13.57075        -0.194120     -0.433368     -0.788426
O      13.35413     13.45579      0.46296         0.019637      0.096409     -0.422058
O      13.30002     13.66962     13.68026         0.078265     -0.838534     -1.380226
O       1.85135      1.82708      5.04769         0.223320      0.000452     -0.132511
O       1.79243     13.41194      4.94582         0.221540     -0.282523     -0.363102
O      13.35364      1.93235      4.86260        -0.161575     -0.106278      0.617769
O      13.51715     13.38967      4.92288        -0.491070     -0.100011      0.005412
O       1.84761      1.82767      9.22091         0.043833      0.141134     -0.262927
O       1.91748     13.25438      9.13198        -0.588216      0.251710      0.433706
O      13.50177      1.90283      9.29792        -0.116804     -0.127802     -0.886917
O      13.51384     13.39861      9.19365        -0.404292     -0.062838     -0.636479
O       1.88934      5.59963      0.60580        -0.088744      0.161366     -0.891371
O       2.00428      5.83999     13.58625        -0.382601     -0.412696     -0.305101
O      13.45811      5.74453      0.61795         0.532478     -0.030969     -0.363446
O      13.36424      5.69514     13.59681        -0.075921     -0.070893     -0.951083
O       1.98400      5.74422      4.97472        -0.203911     -0.015449     -1.303067
O      13.44709      5.59237      4.84168        -0.604726      0.417960     -1.454106
O       1.91790      5.63871      9.29786        -0.466859      0.086361     -0.795747
O      13.38971      5.78300      9.41608        -0.306511     -0.116933     -3.096755
O       1.81959      9.62089      0.56397        -0.153042      0.134574     -2.559684
O       1.69846      9.59224     13.72408         0.317992      0.284060     -0.047555
O      13.26167      9.49939      0.49743         0.396490      0.478177      0.670872
O      13.24983      9.47372     13.56776         0.317407      0.649741      0.051514
O       1.84888      9.52491      4.91369        -0.016922      0.294041     -0.164207
O      13.24036      9.61913      4.88330         0.627468      0.168386     -1.429129
O       1.96564      9.48476      9.28958        -0.227398      0.054712     -0.819689
O      13.34467      9.37849      9.34027        -0.125388      0.529601     -0.848116
O       5.64012      1.84095      0.50784        -0.074203      0.323131     -1.041972
O       5.59708      1.92691     13.73744        -0.021475     -0.167977     -2.652484
O       5.91075     13.31455      0.64741        -0.337428      0.148268     -1.146774
O       5.65596     13.56133     13.60017         0.120743     -0.364512     -0.341346
O       5.70988      1.83966      4.98780         0.067599     -0.143737     -1.704030
O       5.67150     13.33338      4.82118         0.158294      0.493490     -0.754032
O       5.65350      1.90098      9.08718         0.574995     -0.067622      0.656211
O       5.71305     13.41623      9.26082        -0.173321     -0.196711     -0.273833
O       5.61153      5.78993      0.57145         0.091197     -0.509839     -0.500722
O       5.65867      5.76947     13.71664         0.134128      0.137711     -0.777519
O       5.63672      5.65388      4.97677         0.249950      0.355280     -2.043553
O       5.83695      5.68000      9.26892         0.103381     -0.154337      0.324035
O       5.71484      9.68864      0.56143         0.062934     -0.137021     -0.076154
O       5.66574      9.51684     13.70006         0.307898      0.260040     -2.109063
O       5.67312      9.35934      4.89253        -0.071288      0.274311     -0.933480
O       5.77364      9.75510      9.31599        -0.552373     -0.503020      0.381171
O       9.44468      1.78002      0.51575         0.454458      0.261844      0.415205
O       9.69560      2.00764     13.79332        -0.212227     -0.378533     -1.674944
O       9.60903     13.38243      0.66076        -0.068305     -0.071769     -1.946670
O       9.52447     13.51203     13.43465         0.116002      0.090912      0.166925
O       9.62569      1.77271      4.93926         0.000391      0.221169     -1.160104
O       9.56904     13.48271      4.94175        -0.259112     -0.284716     -0.316990
O       9.65349      1.86848      9.20672        -0.543127      0.386222     -0.797331
O       9.33679     13.54033      9.26839         0.684362     -0.233485     -0.836279
O       9.66847      5.76802      0.52082        -0.612499     -0.402418     -0.640137
O       9.54460      5.70630     13.78942         0.184601     -0.271085     -1.305686
O       9.55858      5.70926      4.77433        -0.045491      0.040959      0.665318
O       9.47233      5.55382      9.22685         0.405524      0.185329      0.190519
O       9.62026      9.58342      0.55512        -0.337342      0.134901     -1.147920
O       9.58500      9.44164     13.63031        -0.380119      0.560489     -0.529554
O       9.51363      9.53577      5.04778        -0.133327     -0.045796     -2.389473
O       9.62386      9.53831      9.31988         0.178389      0.034406     -0.726574
O       3.90588      1.89545      2.78263        -1.809908     -0.240648     -0.073618
O       3.69907      1.99305     15.78246         1.106971     -0.413747      0.662532
O       3.80722     13.29840      2.61416         0.003380      0.519803      0.110763
O       3.88246     13.47933     15.77004        -2.186790     -0.744868      0.472322
O       0.05643      1.91637      2.79321         0.279201     -0.026990     -0.142975
O      15.28085      1.81938     15.75479         0.153234     -0.165454      0.346745
O      15.24861     13.36728      2.78476         0.530307      0.356361     -0.642687
O      15.22764     13.40856     15.72058         1.037080      0.292539      0.541923
O       3.81509      1.89273      7.09554         0.146918      0.070120      0.241119
O       3.77767     13.44201      7.04443        -0.382016     -0.491032     -0.083794
O      15.30554      1.92533      7.04008        -1.091429     -0.293756      0.413138
O      15.33845     13.49060      7.03556        -0.124771     -0.406033      0.475100
O       3.80910      1.88828     11.30628        -0.395966     -0.163478      0.574529
O       3.68456     13.32829     11.38925         0.661730      0.028224      0.231930
O       0.02324      1.83833     11.35611         0.090706      0.453325      0.779835
O      15.28065     13.34143     11.25187         0.979180      0.279729      0.758072
O       3.80483      5.66931      2.72797        -0.550099      0.010817      0.427582
O       3.76226      5.80070     15.80832         0.256575     -0.006876      0.283954
O       0.04348      5.80060      2.76808         0.207601     -0.405523      0.091964
O      15.33253      5.76421     15.67478         0.286465     -0.017331      0.425876
O       3.83217      5.67542      7.09032         0.043378      0.227441      0.332195
O      15.32509      5.73674      6.92844        -0.653599     -0.196628      0.770287
O       3.78687      5.83985     11.34323         0.836453     -0.184258      0.341196
O      15.21702      5.65875     11.41734         1.046312     -0.019481      0.446376
O       3.74100      9.70567      2.67365         0.160231     -0.345505      0.292981
O       3.82506      9.56738     15.83440        -0.377768      0.430178      0.043132
O      15.33840      9.50865      2.63537        -1.730886      0.643027      0.506680
O      15.27930      9.67400     15.82407        -0.101204      0.205412      0.287676
O       3.78986      9.55294      7.05718        -0.190733     -0.096927      0.207563
O      15.29317      9.51408      6.93884         0.624468      0.054990      0.740302
O       3.78795      9.66240     11.53705         0.562405     -0.794395     -0.115397
O      15.25011      9.45313     11.32731         0.883071      0.520741      0.663961
O       7.58978      1.87795      2.65744         1.371361      0.035337      0.536878
O       7.56970      1.88940     15.76620         0.747464     -0.084149      0.139061
O       7.68166     13.38077      2.79428        -0.255097      0.300381      0.303281
O       7.69671     13.46378     15.73932        -0.511167     -0.112131     -0.085525
O       7.63162      1.85010      6.99876         0.838459     -0.127039      0.339533
O       7.54855     13.38765      7.09518         0.791198      0.560019     -0.473423
O       7.50176      2.15468     11.37093         1.855719     -1.070713     -0.118623
O       7.52629     13.36417     11.40080         0.905112      0.249005      0.359040
O       7.56568      5.70147      2.62791         1.035817     -0.125747      0.390935
O       7.65113      5.68007     15.85168        -0.706675      0.204169      0.403456
O       7.69273      5.85610      7.04006        -0.718075     -0.756146      0.002237
O       7.62538      5.58730     11.44542         0.585927     -0.027449      0.146493
O       7.52834      9.33568      2.74861         1.086881      1.093831     -0.254499
O       7.61366      9.63872     15.82295         0.725120     -0.385468     -0.002724
O       7.53190      9.64577      7.11619         1.121280     -0.347232     -0.081726
O       7.67959      9.69548     11.40502        -0.022370     -0.291631      0.667854
O      11.54874      1.88424      2.68815        -1.875377      0.331334      0.341501
O      11.60622      1.99383     15.93079        -1.176285     -0.191465     -0.271644
O      11.46022     13.39693      2.69863         1.391584     -0.053066      0.142273
O      11.38130     13.46692     15.78486        -0.136893     -0.720497      0.131973
O      11.45516      1.89238      7.19179         0.131454      0.293163     -0.281945
O      11.44767     13.40379      7.03905         0.800964     -0.325179      0.407377
O      11.56159      1.72409     11.26256        -1.265946      0.319445      0.563233
O      11.41930     13.67916     11.28398         0.772446     -0.343292      0.019605
O      11.45750      5.74483      2.56466         0.039661     -0.421207      0.945053
O      11.57532      5.78053     15.87142         0.155896     -0.286488     -0.218963
O      11.44181      5.76819      7.10117         0.314544     -0.237685     -0.278187
O      11.42787      5.64288     11.55128        -0.437397      0.354103     -0.528110
O      11.43669      9.57700      2.73240         0.184131      0.197405      0.054706
O      11.41005      9.46337     15.70711         0.036022      0.597037      0.504640
O      11.50000      9.54478      6.94754        -0.024102      0.309913      1.201194
O      11.46472      9.49949     11.41689        -1.165848      0.414672      0.636047
O       2.01484      3.80784      2.77308        -0.656350     -0.116675     -0.003139
O       1.93342      3.83390     15.64190        -0.817950      0.200946      0.440126
O       2.01013     15.32613      2.60222        -0.503419      0.258840      0.485861
O       1.91702      0.04546     15.75948        -0.404310     -2.085075      0.614116
O      13.49237      3.90025      2.72855        -0.274803     -1.158552      0.419524
O      13.53888      3.83574     15.75286        -0.488105      0.241883      0.158957
O      13.49183      0.00269      2.83736        -0.488249     -1.140480     -0.807062
O      13.17181     15.31761     15.63878         1.065860      2.029144      1.129111
O       1.92786      3.80439      7.17823        -0.496723      0.151091     -0.053432
O       1.96134     15.33139      7.12997        -0.634958     -0.909518      0.031268
O      13.39855      3.81429      6.95972        -0.407760      0.078729      0.717815
O      13.33965     15.35459      7.09227         0.227822     -0.124820      0.058493
O       1.95559      3.80329     11.50434        -0.365719     -0.903983      0.009172
O       1.94811     15.28713     11.39404        -0.868607     -0.472838     -0.108536
O      13.35049      3.74983     11.45669         0.223097     -0.278965      0.008566
O      13.55126     15.31025     11.46355        -0.206020     -0.055439      0.025793
O       1.87727      7.69915      2.61284         0.423007     -0.579620      0.479631
O       1.78370      7.73051     15.79483         0.222224     -1.127151      0.445300
O      13.39428      7.70669      2.80639         0.071994     -0.135712     -0.004254
O      13.49242      7.73397     15.75998        -0.227613     -1.164333      0.144565
O       1.95569      7.63752      7.14297        -0.474144     -0.046625     -0.040748
O      13.45996      7.63064      6.92305        -0.479428     -0.216194      0.362237
O       1.86300      7.59623     11.42718        -0.109342      0.283311      0.297502
O      13.27321      7.66023     11.55786         0.068275     -1.526321     -0.005099
O       1.85317     11.54357      2.61025        -0.527511     -0.051835      0.856563
O       1.96659     11.53410     15.80507        -0.522759      0.340171      0.380547
O      13.43443     11.48875      2.60494        -0.310566      0.606326      0.196025
O      13.31361     11.47056     15.68214        -0.346531      0.552602      0.429432
O       1.91570     11.37923      7.10325        -0.646716      1.739861     -0.037140
O      13.53653     11.48605      6.94628        -0.508130     -0.006146      0.866005
O       1.83697     11.40654     11.28955        -0.551901      0.710460      0.741258
O      13.29575     11.58295     11.41137        -0.355187     -0.343387      0.175635
O       5.69198      3.77155      2.81056         0.317333      0.172594     -0.288396
O       5.66723      3.84367     15.77508        -0.115437      0.432900      0.593964
O       5.79234      0.01064      2.71402        -0.407727     -1.066307      0.171715
O       5.54394     15.30185     15.79995         0.992115      1.342456      0.415598
O       5.79040      3.80288      6.96493         0.264204     -0.817027      0.713058
O       5.64816     15.23124      7.02035         0.433854      1.481781      0.125035
O       5.57212      3.79582     11.28321        -0.173247      0.325588      0.423720
O       5.68122     15.34123     11.38200         0.206134      0.355203     -0.020382
O       5.54983      7.58280      2.69883         0.183243      0.438506      0.106965
O       5.68644      7.71280     15.88440         0.543289     -0.402805     -0.006312
O       5.74441      7.67428      7.19340        -0.138151     -0.837720     -0.195541
O       5.85910      7.69739     11.44549        -0.489015     -0.513133      0.047177
O       5.76903     11.46046      2.75697         0.251926      0.436491      0.333079
O       5.77617     11.53394     15.85134        -0.139229      0.272652     -0.369782
O       5.66154     11.50246      6.94473        -0.123252      0.011466      0.367317
O       5.70375     11.46264     11.57688        -0.149538      0.538058      0.132199
O       9.50655      3.74207      2.73731         0.357492      0.301633     -0.193010
O       9.54673      3.82320     15.89771         0.212976     -0.722381      0.318019
O       9.64495     15.33327      2.69159        -0.277976      0.230074      0.376113
O       9.54892     15.27139     15.81440         0.263154      1.208475     -0.132686
O       9.50600      3.85697      6.90980         0.337504     -0.915123      0.503112
O       9.54431     15.30286      7.11038        -0.036856      0.389479      0.193625
O       9.65604      3.76340     11.49504        -0.114429     -0.278145     -0.313153
O       9.38174      0.06040     11.37652        -0.186790      0.316955      0.058127
O       9.52243      7.65258      2.70737         0.218977     -0.385744      0.048424
O       9.49198      7.59851     15.81494         0.028685      1.250639      0.283335
O       9.49561      7.65279      7.11694         0.532217      0.000311     -0.077054
O       9.36705      7.55002     11.46247         0.947960      0.464221     -0.367206
O       9.49914     11.45852      2.72445        -0.044636     -0.410446      0.150197
O       9.54816     11.51620     15.67480         0.170315     -0.256494      0.108576
O       9.55301     11.48178      7.11049         0.098062      0.226811      0.163645
O       9.62447     11.55400     11.44166         0.304763     -0.155022     -0.036764
