  # total energy = -7882.25322239 
CRSYTAL
PRIMVEC
    15.3600000000000000    0.0000000000000000    0.0000000000000000
     0.0000000000000000   15.3600000000000000    0.0000000000000000
     0.0000000000000000    0.0000000000000000    17.440000000000000
PRESSURE
1.69054 2.15151 -2.22884 -0.110459 -0.021547 -0.047866
PRIMCOORD
320 1
Pb       3.80175      3.82889      4.35767         0.066627     -0.046900     -0.179253
Pb       3.86650      3.83184     17.38288         0.013346      0.115681     -0.085028
Pb       3.81548      0.02121      4.28375        -0.149958      0.263292     -0.141694
Pb       3.68031      0.02725     17.41136         0.644397      0.040297      0.424553
Pb       0.02023      3.73018      4.35718        -0.191386      0.041696      0.192336
Pb       0.06721      3.97603     17.38324        -0.459633     -0.526813      0.068547
Pb       0.01506     15.32281      4.29403        -0.035130      0.227845      0.079673
Pb      15.23884     15.28295     17.40928         0.268871      0.702194      0.263335
Pb       3.76336      3.72774      8.75503         0.192083      0.248935     -0.192490
Pb       3.91227      0.00543      8.58454        -0.766467     -0.246326      1.087626
Pb      15.26797      3.85665      8.66888        -0.057165      0.110274     -0.019019
Pb      15.24341      0.03686      8.66279         0.329458     -0.514154      0.250871
Pb       3.66396      3.74241     13.06638         0.483099      0.155156      0.165851
Pb       3.72349     15.28383     12.98624        -0.238307      0.671631      0.591296
Pb       0.01674      3.80008     13.05289        -0.132955      0.001147      0.210940
Pb       0.02998     15.34358     13.03264        -0.108091      0.126602      0.260800
Pb       3.84469      7.64290      4.31480         0.239915     -0.332453     -0.220686
Pb       3.78022      7.58463     17.34778         0.114025      0.533791      0.177238
Pb       0.06106      7.78964      4.36521        -0.274663     -0.589415      0.427708
Pb      15.11666      7.69340     17.33443         0.895963     -0.310597      0.660910
Pb       3.89705      7.67827      8.72092         0.047520     -0.008577     -0.462785
Pb       0.08324      7.59426      8.64796        -0.541562      0.030606      0.818062
Pb       3.77766      7.58561     12.95117        -0.139538      0.450677      1.207753
Pb       0.03474      7.62624     13.08542        -0.271761      0.017953      0.145478
Pb       3.77974     11.58573      4.20982         0.071586     -0.423652      0.403383
Pb       3.97392     11.56493     17.40870        -0.102832     -0.362516      0.074117
Pb      15.31504     11.57429      4.35627         0.436995      0.301327      0.154619
Pb      15.29220     11.59287     17.28313        -0.107245     -0.095593      0.719358
Pb       3.84708     11.54647      8.60507        -0.256169      0.038377      0.219380
Pb      15.24044     11.39025      8.65729         0.577963      0.572483      0.230961
Pb       3.85949     11.51716     13.16442        -0.301175     -0.562821     -0.273907
Pb       0.07738     11.57596     13.10227        -0.235666     -0.389288     -0.061106
Pb       7.72571      3.72984      4.39934        -0.297570      0.163291      0.264320
Pb       7.65556      3.90834     17.35759         0.290220     -0.045111      0.150667
Pb       7.73648      0.06407      4.32389        -0.023634      0.133811     -0.299658
Pb       7.64959      0.07351     17.32790        -0.212385     -0.230336      0.555926
Pb       7.69956      3.74136      8.76201        -0.313917     -0.108352      0.351873
Pb       7.63725     15.16719      8.63598         0.170313      0.815043      1.341211
Pb       7.78983      3.85186     13.17038        -0.401440      0.241767     -0.525872
Pb       7.58947      0.11397     13.06429         0.468195     -0.374162      0.488736
Pb       7.67927      7.55543      4.29602         0.153840      0.061574      0.450931
Pb       7.66386      7.75247     17.37890         0.087143     -0.893492      0.532143
Pb       7.62397      7.70055      8.63655         0.037166     -0.152012      0.620848
Pb       7.51202      7.67498     12.99292         0.839017     -0.095437      0.529261
Pb       7.66426     11.55620      4.31505         0.249493     -0.150266      0.072754
Pb       7.76663     11.49508      0.05068         0.083753      0.473976     -0.141991
Pb       7.45148     11.52438      8.54411         0.728299     -0.122055      1.383742
Pb       7.69198     11.42312     13.07111         0.006059     -0.163084     -0.539421
Pb      11.43716      3.80331      4.30283        -0.082204      0.017609      0.804299
Pb      11.73557      3.86377     17.40044        -0.866403     -0.062129      0.392758
Pb      11.43372     15.26006      4.28436         0.011447      0.122526      0.261487
Pb      11.45436     15.29733     17.42499         0.077523      0.228569      0.252231
Pb      11.36509      3.87354      8.69524         0.422472     -0.234574      0.540480
Pb      11.54376     15.29012      8.67004        -0.570552     -0.180879      0.433368
Pb      11.60173      3.74680     13.10707        -0.272436      0.241966     -0.082600
Pb      11.62003      0.00361     12.90991        -0.377051     -0.018319      1.037362
Pb      11.43951      7.72327      4.28057        -0.127053      0.001999      0.486252
Pb      11.59533      7.61930     17.37070        -0.545726      0.039515      0.890057
Pb      11.43846      7.65570      8.71346         0.234778     -0.117592      0.202271
Pb      11.42184      7.69419     12.99296         0.763289      0.059173      0.299739
Pb      11.57987     11.44421      4.32990        -0.579178      0.638003      0.287523
Pb      11.45193     11.42847     17.37381         0.344058      0.279038      0.804998
Pb      11.63137     11.50588      8.59241        -0.505261      0.124516      0.483649
Pb      11.52607     11.45169     12.97885        -0.082396     -0.402424      0.708644
Ti       1.83164      1.87810      2.28713         0.251224     -0.260626     -0.541514
Ti       1.85554      1.94453     15.49572        -0.928548      0.399082     -0.804408
Ti       1.90668     13.36677      2.19374        -0.682834      1.280225      1.123016
Ti       1.89838     13.45195     15.46438         0.347075      0.473706     -1.454833
Ti      13.32807      1.90757      2.31045         1.559588      0.107828     -1.168959
Ti      13.38478      1.83908     15.52179         0.415692      0.728303     -0.879824
Ti      13.43868     13.43470      2.39054        -1.456098      0.555872     -1.894455
Ti      13.36510     13.41287     15.39616         0.157240      0.054174     -0.891980
Ti       1.84201      1.86526      6.65442         0.211214      0.117903      0.470848
Ti       1.81071     13.43309      6.75691        -0.066819     -0.194309     -1.488376
Ti      13.38992      1.88123      6.69457        -0.421604     -0.345326     -1.087417
Ti      13.38750     13.39575      6.66315         0.255565      0.251171     -0.407825
Ti       1.81282      1.89984     11.02067         0.319490     -0.617245      0.429961
Ti       1.89660     13.36305     11.08500        -0.059287      0.216918     -1.851862
Ti      13.38431      1.89787     10.98387         0.072865      0.047506      0.469666
Ti      13.38041     13.34412     11.14691         0.789341      0.020906     -1.977140
Ti       1.81857      5.78915      2.34913         0.819837     -1.272945     -1.569639
Ti       1.92404      5.79510     15.46510        -0.735344     -0.179035     -1.541332
Ti      13.43985      5.72901      2.57236        -0.485704      0.060630     -1.657544
Ti      13.37900      5.71224     15.33798         1.459437     -0.101635     -1.288579
Ti       1.90097      5.71908      6.77552         0.791322     -0.061059     -0.327860
Ti      13.37728      5.72969      6.71495         0.290088      0.018881     -1.452074
Ti       1.88496      5.77371     11.05621        -0.696835     -0.461660     -0.476426
Ti      13.45337      5.72155     11.09201        -0.398568      0.219269     -1.771360
Ti       1.95479      9.55823      2.27813         0.895757      0.220188     -1.074692
Ti       1.89633      9.62633     15.48945         1.724790     -0.756823     -1.932863
Ti      13.55979      9.60426      2.41984        -0.833303     -0.070305     -1.492458
Ti      13.47828      9.58179     15.32107        -0.683671      0.341487     -1.169081
Ti       1.98143      9.57320      6.68966         0.168327      0.197919      0.059076
Ti      13.50187      9.48693      6.74220        -0.713887     -0.259955     -0.582129
Ti       1.94420      9.60544     11.09985        -0.651221     -0.764019     -0.352144
Ti      13.54145      9.58893     11.07183        -0.445143     -1.009539     -0.256733
Ti       5.76294      1.96045      2.37576        -0.168521     -0.733458     -0.330938
Ti       5.66951      1.85743     15.42756         0.842535      0.647692     -2.007523
Ti       5.68422     13.46019      2.35605         1.234634      0.735601     -1.029026
Ti       5.77867     13.40379     15.34565         0.296001      0.305919      1.520814
Ti       5.73670      1.90822      6.73430        -0.401378      0.243352     -1.603342
Ti       5.72440     13.47242      6.57663        -1.113164     -0.374132      0.016077
Ti       5.72790      1.91305     11.20894        -0.457460      0.872371     -1.623468
Ti       5.72601     13.48699     11.18827         0.457557     -1.489510     -2.063414
Ti       5.76365      5.67584      2.32394         0.075401      0.537658      0.082804
Ti       5.76034      5.72956     15.34371        -0.002843     -0.349055     -0.110239
Ti       5.79840      5.65419      6.76105        -0.888075      0.128432     -0.859155
Ti       5.71142      5.77365     11.02868         0.964529     -1.780872     -0.311037
Ti       5.86646      9.58252      2.28791        -1.246976     -0.290275     -0.434888
Ti       5.81510      9.57300     15.49548        -1.204815     -0.405722     -0.502145
Ti       5.86300      9.55385      6.54780        -1.249875     -0.101281      1.364890
Ti       5.70951      9.56581     11.03923         0.459278      0.710624     -1.653222
Ti       9.63137      1.97009      2.22784        -1.047706     -0.949040      0.834657
Ti       9.54240      1.97032     15.40642         0.192852      0.492097     -1.226957
Ti       9.55147     13.40488      2.38839         0.355610      0.443359      0.552609
Ti       9.61510     13.48657     15.42804        -0.799581     -0.081774      0.151653
Ti       9.56605      1.87214      6.80034        -0.443213     -0.113576     -1.133669
Ti       9.55840     13.41722      6.69355         0.623816      0.046290     -1.641079
Ti       9.52226      1.85758     11.13575         0.470717      0.852128     -1.548806
Ti       9.59068     13.35204     11.11636        -1.308104      1.047259     -2.165997
Ti       9.54712      5.68176      2.35216        -0.221310      0.997147     -2.009161
Ti       9.63942      5.81094     15.40601        -0.743020     -1.392476      0.825968
Ti       9.58590      5.75230      6.81412        -0.769668      0.036854      0.501625
Ti       9.64025      5.79845     11.06118        -0.706995     -1.365252     -1.778962
Ti       9.63117      9.64082      2.41611        -0.080620     -0.424203     -0.750068
Ti       9.65082      9.58521     15.43914        -0.247188      0.038919     -1.034121
Ti       9.65402      9.64001      6.75830        -0.857432     -0.691652     -1.732485
Ti       9.65769      9.58952     10.90375        -1.004788      0.075303     -0.593921
O       1.83856      1.83564      0.48932         0.111566      0.468931      0.255800
O       1.81767      1.83771     13.70329         0.007796      0.259848      0.023666
O       1.88775     13.40326      0.44925        -0.010240      0.173437     -0.839744
O       2.03377     13.41470     13.60585        -0.572984      0.051275      1.351735
O      13.41299      2.09424      0.43361        -0.103130     -0.823671      1.786315
O      13.34085      1.72158     13.74642         0.291599      0.508964     -0.195650
O      13.27893     13.35964      0.56190         0.574490      0.220263      0.492616
O      13.39877     13.33762     13.59603        -0.109380      0.255952      0.338679
O       1.80551      1.80042      4.88126         0.142415      0.227054      0.390578
O       1.73709     13.48032      4.93145         0.272602     -0.316621      0.655680
O      13.41410      1.76068      4.92351        -0.221712      0.346023      0.472114
O      13.33571     13.42100      4.89321         0.340747      0.120357     -0.427128
O       1.83083      1.89707      9.28569        -0.163032     -0.031641     -0.405969
O       1.91233     13.29467      9.28585        -0.203554      0.005488      0.562441
O      13.36393      1.81187      9.22756         0.185334      0.252939     -0.074737
O      13.37387     13.27827      9.30956        -0.081161     -0.041368      0.940212
O       1.85737      5.76019      0.48204         0.112071     -0.072951      1.453043
O       1.87180      5.69291     13.65295        -0.084115      0.221829      0.078816
O      13.38561      5.71080      0.70649         0.188388      0.195247      1.158912
O      13.38568      5.78213     13.54574         0.023067     -0.315114      0.653594
O       2.00847      5.67127      5.01362        -0.222483      0.524611     -0.295275
O      13.47711      5.87725      4.88736        -0.385435     -0.217188      0.730736
O       1.77382      5.79346      9.27863         0.338430     -0.172995      0.382177
O      13.39562      5.67016      9.20670         0.040515     -0.137533      1.453211
O       1.90393      9.55623      0.51080        -0.178036      0.137109     -0.104882
O       2.13590      9.58255     13.67193        -0.732823      0.217126      1.169094
O      13.51197      9.57263      0.61414         0.119833      0.382482      0.742047
O      13.48934      9.66708     13.54497        -0.377210     -0.368312      0.886196
O       1.94846      9.51928      4.91304         0.072775     -0.046821     -0.091049
O      13.57033      9.43956      4.95434        -0.138832      0.276118     -0.246767
O       1.90442      9.60900      9.34248        -0.114466     -0.076277     -0.334607
O      13.48568      9.58054      9.25520        -0.069383      0.311088      0.620438
O       5.85885      1.91825      0.60897        -0.615284      0.138725     -0.570713
O       5.66838      1.81308     13.57578         0.324065      0.174342      0.957755
O       5.67949     13.48906      0.55992         0.068895     -0.164157      0.781238
O       5.74715     13.34549     13.60581        -0.004340      0.121733     -0.855180
O       5.70171      2.04317      4.91064        -0.151296     -0.541258      0.751337
O       5.61690     13.50594      4.82586         0.305755     -0.277586      0.201964
O       5.71662      1.84309      9.39172        -0.339239      0.160518      0.778168
O       5.77479     13.22140      9.36542        -0.345527      0.974823      0.699488
O       5.81452      5.67943      0.55234        -0.507558     -0.183573      0.222357
O       5.83629      5.68921     13.59097        -0.266712      0.577377     -0.126059
O       5.79367      5.70941      4.94281        -0.612085     -0.096936      0.778869
O       5.77806      5.75015      9.23510        -0.221688     -0.042391      1.138825
O       5.75708      9.58575      0.48176         0.414070      0.067052      0.802485
O       5.85565      9.56171     13.71128        -0.030276      0.049780     -0.236737
O       5.84285      9.70115      4.81887        -0.367031     -0.573170     -0.431283
O       5.75388      9.44345      9.19919        -0.105967      0.670451      1.802866
O       9.70839      1.96373      0.51714        -0.402927     -0.154127     -0.945684
O       9.37320      1.96289     13.53130         0.831728     -0.179847      1.419060
O       9.54248     13.33326      0.63756         0.254333      0.295022     -0.903291
O       9.73626     13.45564     13.71526        -0.598377     -0.354332     -0.851383
O       9.39924      1.98118      4.96530         0.739590     -0.371621      1.189084
O       9.66100     13.50876      4.81811        -0.599638     -0.204058      2.175080
O       9.48665      1.86690      9.27559         0.142790     -0.018507      1.136925
O       9.54690     13.46642      9.29686         0.122610     -0.305913      0.966165
O       9.58863      5.73009      0.54938        -0.053614      0.167368      0.910289
O       9.61256      5.67874     13.67050         0.214987      0.398569     -0.682235
O       9.41587      5.64902      5.10345         0.316361      0.248759     -1.617624
O       9.64717      5.72081      9.10057         0.046026     -0.132915      2.470823
O       9.57383      9.69361      0.60584         0.137600     -0.141503      0.343692
O       9.58763      9.53621     13.65739         0.095437      0.362598      0.791176
O       9.55905      9.51022      4.89625         0.272333      0.345375      1.129349
O       9.55426      9.55828      9.10022         0.485546      0.252985      1.065634
O       3.72551      1.90692      2.65856         0.668420     -0.332056      0.273301
O       3.81679      1.88985     15.74760         0.293905      0.219675      0.638614
O       3.79099     13.47996      2.73859        -0.324754      0.133875     -0.248241
O       3.80418     13.51785     15.90590         0.152843     -0.329243     -0.682682
O      15.25527      1.94015      2.82711        -0.288865     -0.403893     -0.594045
O      15.32327      2.01750     15.82409        -0.014758     -0.556010      0.142009
O      15.29702     13.39952      2.60167         0.665084     -0.009759      0.272654
O      15.30141     13.53289     15.77488         0.498657     -0.345284      0.110426
O       3.76243      1.84912      7.16424        -0.567604      0.066561     -0.356759
O       3.71511     13.47678      7.04356         1.104546     -0.356436      0.008664
O      15.26249      1.84543      7.11513         0.535941      0.206257      0.003752
O      15.25835     13.31114      7.07292         0.392647      0.331658      0.301532
O       3.67510      1.86794     11.58316         0.754226      0.332694     -0.563187
O       3.79364     13.44519     11.46870         0.571638     -0.480519      0.133163
O      15.27855      1.77289     11.56185         0.062187      0.511517     -0.595329
O      15.33610     13.37598     11.46993         0.122870     -0.238508      0.219908
O       3.75209      5.75915      2.78601         0.166430     -0.006848     -0.269337
O       3.79512      5.66511     15.68191         0.811338      0.355091      0.751080
O      15.31503      5.72208      2.86919         0.381200     -0.197602     -0.322354
O      15.28827      5.79074     15.78616         0.054351      0.351378      0.131691
O       3.82113      5.70490      7.24616        -0.344863      0.154518     -0.261217
O      15.28391      5.74007      7.12059         0.388337     -0.052666     -0.077886
O       3.78794      5.68169     11.51931         0.293859      0.309546     -0.738963
O      15.31154      5.73246     11.48553         0.778956      0.002852      0.087047
O       3.86890      9.51951      2.61542        -0.021854     -0.069132      0.529794
O       3.85847      9.64091     15.85983        -0.434222      0.132697      0.245282
O       0.12698      9.64163      2.78040        -1.454867      0.281694      0.137753
O      15.33579      9.50705     15.67101        -0.019863      0.368851      0.496667
O       3.84783      9.55754      7.15832         0.338210     -0.173233     -0.721644
O      15.32513      9.46006      7.16232         0.551202      0.484221     -0.496028
O       3.81167      9.54208     11.45602         1.666724     -0.483504     -0.056392
O       0.01852      9.61396     11.61218         0.189951     -0.221900     -0.493740
O       7.63954      1.92863      2.71419         0.449913      0.059585      0.078881
O       7.67118      2.03263     15.79002        -0.214803     -0.671155      0.157406
O       7.67420     13.39819      2.76979        -0.834564      0.048495      0.005995
O       7.64692     13.44089     15.85201         0.216847     -0.278227     -0.378924
O       7.54326      1.84378      7.05560         1.102393      0.104621      0.490783
O       7.59508     13.42647      7.14863         0.191869     -0.244158     -1.165529
O       7.62927      1.87423     11.47589        -0.051729     -0.457164      0.098737
O       7.69869     13.47709     11.46968        -0.470912      0.179938      0.587493
O       7.69429      5.70549      2.81341        -0.494201     -0.264021     -0.308010
O       7.63020      5.78532     15.84894         0.846922      0.234767     -0.359656
O       7.61876      5.62595      7.05155         0.342154     -0.171376      0.753641
O       7.72646      5.84595     11.49097         0.111289     -0.111242     -0.550167
O       7.68179      9.73715      2.72876        -0.224183     -0.188863     -0.229163
O       7.70196      9.56012     15.87525         0.190495      0.155526     -0.165543
O       7.65106      9.61207      7.06576        -0.025136     -0.229463     -0.322208
O       7.81956      9.41357     11.40172        -1.378688      0.376798      0.073854
O      11.49444      1.97817      2.68481        -0.303618      0.021443      0.190211
O      11.47875      2.00375     15.80088         0.087202     -0.471255     -0.085938
O      11.44299     13.38393      2.78630         0.827927      0.474260      0.027306
O      11.48228     13.58136     15.79426         0.397079     -0.783516      0.250482
O      11.41983      1.73221      7.14515         0.544896      0.485476     -0.393569
O      11.44811     13.36023      7.09082         0.155060      0.283807      0.041900
O      11.50657      2.06847     11.55416         0.520236     -0.983268     -0.713496
O      11.43077     13.21974     11.47892         1.678485      0.523357     -0.127584
O      11.36842      5.77451      2.85562         1.359808     -0.063553      0.162038
O      11.59269      5.72362     15.89312        -1.234126      0.372517     -0.434954
O      11.45224      5.64457      6.92971         0.850926      0.051411      0.610216
O      11.54670      5.61172     11.43593        -0.503965      0.175452      0.119671
O      11.52704      9.63227      2.73928         0.873678     -0.297600      0.120350
O      11.53147      9.56771     15.79741         0.134889      0.435956     -0.022796
O      11.47145      9.51614      7.06303         1.150708      0.334614      0.089811
O      11.51808      9.59043     11.47179         0.523171      0.315144     -0.400202
O       1.81102      3.70538      2.68414         0.065124      1.951048      0.234561
O       1.93382      3.90424     15.75640        -0.212269     -1.078885      0.703243
O       1.79951     15.29853      2.65791         0.155639     -0.060450      0.027307
O       1.86850      0.11367     15.91253        -0.167964     -2.020698     -0.230732
O      13.33243      3.82686      2.90822         0.286801      0.193717     -0.390323
O      13.52054      3.86503     15.75725        -0.692355      0.077007     -0.109246
O      13.31227      0.02741      2.64188         0.193713     -0.040777     -0.110926
O      13.44105     15.30612     15.83461        -0.280039      0.324219      0.362052
O       1.83252      3.82412      7.07932         0.005986     -0.745392      0.226543
O       1.77871      0.00577      7.05659         0.012885     -0.385212      0.329654
O      13.38196      3.73522      6.94995        -0.095071      0.948564      0.398507
O      13.38754     15.23926      7.08105         0.070651      0.649624      0.384190
O       1.84487      3.82860     11.34205        -0.244817     -0.237781      0.538839
O       1.85711     15.29426     11.37506        -0.018759     -0.024463      0.371866
O      13.54023      3.77108     11.44772        -0.166804     -0.118158      0.017389
O      13.39398     15.27792     11.31324        -0.455806      0.179168      0.379711
O       1.82815      7.62267      2.62262         0.224893      0.452794      0.480886
O       1.92539      7.68950     15.71683         0.124260      0.281907      0.551730
O      13.53583      7.73586      2.66239        -0.311229     -0.318032      0.559377
O      13.32374      7.70981     15.81579         0.512428     -0.400312     -0.323851
O       1.91013      7.67573      7.16455         0.055804     -0.323887     -0.331002
O      13.32190      7.60705      7.18798         0.195529      0.148964     -0.361011
O       1.83555      7.64070     11.54383         0.457135     -0.121340     -0.276527
O      13.46608      7.62312     11.46662        -0.272522      0.574112     -0.141787
O       1.93867     11.55338      2.56285         0.133402     -0.939961      0.585870
O       1.80672     11.58160     15.67247         0.090277     -0.223679      0.541219
O      13.38376     11.61186      2.78648         0.550345     -2.104990      0.290253
O      13.49306     11.52012     15.72035        -0.367558     -0.278195      0.279835
O       1.88992     11.47101      6.95042        -0.157634     -0.195896      0.488380
O      13.41379     11.47624      6.89806        -0.197964     -1.112010      0.820389
O       2.06093     11.38686     11.46811        -0.672003      2.213645      0.606193
O      13.55162     11.44514     11.44401        -0.655993      0.412434      0.171348
O       5.66292      3.83680      2.76394         0.026633      0.005566     -0.072140
O       5.79842      3.81146     15.69346        -0.582725     -0.060281      0.623593
O       5.79534      0.03095      2.80046        -0.545674     -0.361104     -0.087535
O       5.87616     15.35911     15.72978        -0.498937     -0.285822      0.105194
O       5.58648      3.71608      7.20670         0.496432      0.854870     -0.030776
O       5.65970     15.30870      7.08335         0.301592     -0.065518     -0.211862
O       5.81759      3.85353     11.47055        -0.499418     -0.168424     -0.144381
O       5.65260     15.34113     11.47233         0.335947     -0.077928      0.210380
O       5.90992      7.56519      2.64469        -0.659607      1.625229      0.222420
O       5.62287      7.61418     15.83828         0.669121      0.582014     -0.113894
O       5.82876      7.59961      7.09150        -0.559954      0.723573     -0.585874
O       5.76302      7.64874     11.38491        -0.435946      0.210382      0.399517
O       5.66925     11.55274      2.68753         0.081801     -0.521618     -0.035990
O       5.74708     11.49872     15.76553        -0.010055      0.534781      0.146037
O       5.75882     11.54277      6.95045        -0.519561     -0.302466     -0.101366
O       5.80889     11.45693     11.38669         0.023202     -0.552083      0.750957
O       9.48770      3.80084      2.70865         0.647916      0.305223      0.227541
O       9.58530      3.85683     15.80068        -0.018648      0.478045     -0.230124
O       9.57224      0.04472      2.73794         0.044706      0.015244     -0.258553
O       9.53584      0.07341     15.80739         0.178289     -0.585989      0.115937
O       9.55299      3.71834      7.24076        -0.120044      0.413390     -0.427429
O       9.47695     15.27943      7.16766         0.256388      0.058251     -0.423984
O       9.52344      3.80019     11.42208         0.025091      0.850254      0.052760
O       9.77014      0.01997     11.47713        -0.609991     -0.675196     -0.101776
O       9.52666      7.71960      2.75862         0.024830     -0.354799     -0.056044
O       9.63455      7.66271     15.77038         0.098125      0.353731      0.352430
O       9.56713      7.67326      7.24125        -0.082227     -0.384608     -0.986702
O       9.79992      7.65738     11.37094        -0.391767     -0.326421     -0.296390
O       9.64448     11.53465      2.79666        -0.375437     -0.646655      0.250202
O       9.60844     11.52510     15.94944        -0.126911     -0.023611     -0.864052
O       9.57660     11.51939      7.00668        -0.227017      0.173511      0.104629
O       9.49990     11.46017     11.41264         0.231951     -0.231558      0.219979
