  # total energy = -7866.89019258 
CRSYTAL
PRIMVEC
    15.010000000000000    0.0000000000000000    0.0000000000000000
     0.0000000000000000   15.010000000000000    0.0000000000000000
     0.0000000000000000    0.0000000000000000    16.400000000000000
PRESSURE
18.8842 19.0722 11.4906 0.16164 0.002158 -0.050908
PRIMCOORD
320 1
Pb       3.77033      3.86388      4.10862        -0.396320     -0.710933      0.109437
Pb       3.79068      3.68993      0.08507        -0.186080      0.026812     -0.458207
Pb       3.66928      0.02890      4.05875         0.421653     -0.232976      0.189817
Pb       3.63049     14.94224      0.01207         0.323790      0.354878      0.369717
Pb       0.01429      3.65405      4.00903        -0.327213      0.416466      1.030039
Pb       0.08742      3.71903     16.39275        -0.395272      0.135813      0.444854
Pb       0.07123     14.97306      3.96754        -0.529822      0.731351      1.240088
Pb      14.93254     14.95464      0.06019         0.380325     -0.012183      0.094698
Pb       3.86223      3.77384      8.21869        -0.863463     -0.695078      0.247491
Pb       3.70456     14.90864      8.17201         0.394519      0.255562      0.169038
Pb       0.01772      3.74830      8.24331        -0.144795     -0.015256     -0.316638
Pb       0.00445      0.00611      8.20194        -0.313599      0.222879      0.519760
Pb       3.60644      3.78739     12.29959         0.393117     -0.196531      0.676426
Pb       3.76553     15.00780     12.30128         0.149903      0.057462      0.319948
Pb      14.99916      3.63869     12.34065        -0.571002      0.796865      0.233370
Pb      14.97852     14.98133     12.38118        -0.362962     -0.366611     -0.479433
Pb       3.71913      7.41911      4.00771         0.056875      0.728181      1.120343
Pb       3.69896      7.37876      0.02614         0.244051      0.566660      0.396420
Pb      14.93938      7.43945      4.09343        -0.024034     -0.223953      0.185734
Pb       0.01798      7.50881     16.37285        -0.404277      0.027658      0.626919
Pb       3.73235      7.45071      8.10478        -0.219336      0.414345      0.482680
Pb      14.93537      7.45553      8.26072         0.016705      0.096680     -0.807342
Pb       3.77853      7.62014     12.27643        -0.118045     -0.623821      0.099781
Pb       0.06428      7.45860     12.39419        -0.668222     -0.030169     -0.527331
Pb       3.70705     11.34944      4.11947         0.200032     -0.557415      0.341871
Pb       3.75371     11.23329     16.34515        -0.361864     -0.292653      0.769949
Pb       0.00722     11.31013      4.05897        -0.410728     -0.533115      0.769992
Pb      14.96012     11.21527     16.38654        -0.057045     -0.195252     -0.125225
Pb       3.82958     11.22909      8.18610        -0.704370     -0.053653     -0.376535
Pb      14.92977     11.24605      8.31391         0.298498     -0.131801     -0.634581
Pb       3.76658     11.34307     12.29260        -0.283216     -0.540462     -0.337129
Pb       0.00540     11.24429     12.32588         0.085265     -0.153520     -0.251217
Pb       7.51960      3.58686      4.07248        -0.741941      0.512152      0.289177
Pb       7.47084      3.76459     16.32407         0.266748     -0.365394      0.484776
Pb       7.45310     14.96558      4.01941        -0.538692      0.360024      0.792810
Pb       7.41417      0.04198      0.03803         0.330260     -0.432854      0.014201
Pb       7.50160      3.75227      8.23139        -0.176276      0.175579     -0.113895
Pb       7.59013     14.94704      8.20538        -1.144638      0.436789      0.010899
Pb       7.51588      3.70104     12.21431         0.119668      0.113050      1.052068
Pb       7.51745     14.94194     12.37318        -0.376127     -0.285434     -0.001747
Pb       7.45933      7.52877      4.01773        -0.148216     -0.131151      0.809931
Pb       7.47000      7.55249      0.04890         0.103833      0.040157     -0.348105
Pb       7.42375      7.58336      8.26764         0.589934     -0.717134     -0.110599
Pb       7.46774      7.39607     12.30890         0.526979      0.206435      0.129038
Pb       7.57976     11.32727      4.06536        -0.504983     -0.066611      0.291157
Pb       7.55028     11.20786      0.02537        -0.097013      0.586131     -0.030562
Pb       7.49108     11.26602      8.24090         0.360658     -0.111086     -0.039359
Pb       7.49412     11.16146     12.37713         0.258001      0.460790     -0.509860
Pb      11.22691      3.72658      4.01672         0.605248      0.189692      1.085018
Pb      11.16045      3.64570     16.34723         0.267295      0.382415      0.148223
Pb      11.22574      0.02431      4.05799         0.699058      0.000390      1.245810
Pb      11.08594     14.88863      0.07580         0.642759      0.247078     -0.522426
Pb      11.15086      3.75345      8.11102         0.588001      0.041994      0.482081
Pb      11.21330      0.01248      8.20282         0.335610      0.304049      0.106590
Pb      11.30623      3.70484     12.36770        -0.683577      0.375156      0.279805
Pb      11.22995      0.05129     12.28466         0.192627     -0.482420      0.395453
Pb      11.19533      7.44620      4.09253         0.198244     -0.070016      0.419944
Pb      11.23521      7.53125     16.36225         0.043682     -0.027400      0.632929
Pb      11.18003      7.50575      8.25161         0.208346     -0.341804     -0.676098
Pb      11.34948      7.53323     12.31554        -0.623574     -0.728784      0.205323
Pb      11.35868     11.21712      4.11781        -0.381661      0.270683      0.221566
Pb      11.31294     11.20836      0.05073        -0.309709      0.341828     -0.005499
Pb      11.20007     11.14829      8.21128        -0.000367      0.414311     -0.025007
Pb      11.26278     11.29070     12.30283         0.050293      0.109697     -0.042307
Ti       1.83874      1.87993      2.15451        -0.149631      0.125729     -0.362471
Ti       1.86439      1.81995     14.41384         0.625992      1.273748      0.191721
Ti       1.82251     13.05907      2.09075         0.537572      0.761442     -0.020200
Ti       1.87945     13.12607     14.36391        -1.153798     -0.473616      0.629147
Ti      13.11019      1.80790      2.12379         0.010639      0.754493      0.831557
Ti      13.14680      1.79685     14.52511        -0.892469      0.980678     -0.958405
Ti      13.14311     13.11599      2.17348        -1.182388     -0.562628     -1.655904
Ti      13.15055     13.12312     14.44571        -0.935495     -0.166152      0.434151
Ti       1.88782      1.84105      6.20471        -1.420038      1.084557     -0.405323
Ti       1.78302     13.14876      6.16174         1.134209     -1.762672      0.010548
Ti      13.11961      1.87245      6.28426        -0.243648      0.458801     -1.277540
Ti      13.13316     13.20327      6.16825        -0.408218     -1.154737      1.280203
Ti       1.77823      1.80381     10.42315         0.970171      0.952615     -0.772090
Ti       1.87033     13.15238     10.26292        -0.743910     -1.138717      0.679052
Ti      13.06967      1.89669     10.33251        -0.318354     -1.213484     -0.172001
Ti      13.12972     13.13340     10.31423         0.085086     -0.029419      0.217902
Ti       1.87485      5.65346      2.12720        -0.767261     -0.736028      0.701087
Ti       1.83553      5.59481     14.42664         1.110370      0.395532      0.586464
Ti      13.05010      5.56449      2.11642         0.751838     -0.337558      0.059881
Ti      13.10433      5.59163     14.53070         0.534560      0.136053     -0.816158
Ti       1.91373      5.60520      6.23191        -2.168476     -0.307884     -0.074500
Ti      13.10358      5.57743      6.20348        -0.425930      0.936716      1.532767
Ti       1.83072      5.62413     10.36054        -1.155097     -0.101616     -0.602304
Ti      13.05697      5.55426     10.35553         0.155028      1.321682      0.722819
Ti       1.77602      9.36722      2.22187         0.887686     -0.176361     -0.519923
Ti       1.84639      9.32162     14.46105        -0.352329      0.776101      0.500688
Ti      13.05446      9.28610      2.14824        -0.091444      0.693271      0.583634
Ti      13.04182      9.30567     14.35335         1.569993      1.327041      0.568290
Ti       1.86545      9.41678      6.13820        -0.501949     -0.108112      1.645048
Ti      13.09492      9.42938      6.21784         0.530119     -0.884929     -0.029632
Ti       1.92869      9.32787     10.32370        -1.120886      0.794310      1.029748
Ti      13.18857      9.35757     10.27704         0.208273     -0.372835      1.115327
Ti       5.51290      1.86915      2.15572         1.301839      0.140860     -0.380329
Ti       5.61257      1.80812     14.49813         0.151186      0.482032     -0.329589
Ti       5.56410     13.09342      2.13995        -0.417782      0.509133      0.291683
Ti       5.56727     13.07190     14.48864         2.081346      0.646677     -0.318182
Ti       5.52894      1.80957      6.22838         0.133913     -0.793131      0.325218
Ti       5.63518     13.09456      6.22001        -0.738986      0.828776      0.855642
Ti       5.58775      1.80353     10.37963        -0.450285     -0.722497     -1.088236
Ti       5.59191     13.08941     10.31332         1.594216      0.019109      0.169803
Ti       5.69938      5.57594      2.16060        -0.378674      0.650993      0.390567
Ti       5.59902      5.60386     14.42832         0.266461     -0.646182     -0.073426
Ti       5.62300      5.62126      6.16795         0.511235     -0.692592      1.572490
Ti       5.55112      5.50468     10.39494         0.331289      1.757228     -0.970428
Ti       5.54223      9.35899      2.17719        -0.777408      0.357976      0.335702
Ti       5.56700      9.31855     14.45449         1.388358      0.458540     -0.033382
Ti       5.62365      9.32653      6.22391        -0.511082      0.655596     -1.536915
Ti       5.68212      9.33332     10.34935         0.361840     -0.163440      0.958035
Ti       9.39247      1.88237      2.15671        -1.419938     -0.112183     -1.056837
Ti       9.34483      1.84958     14.41109         0.311923      0.561481      1.130034
Ti       9.41279     13.18783      2.23665        -0.684055     -1.409221     -0.878117
Ti       9.40338     13.16394     14.40541        -1.061970     -0.754574     -0.098923
Ti       9.25944      1.93802      6.18030         0.953712     -0.788993      0.967651
Ti       9.39983     13.20893      6.25822        -0.523351     -0.084622     -0.016498
Ti       9.31056      1.80101     10.29512        -0.106835      0.964285      0.557822
Ti       9.37158     13.12227     10.32053        -0.506723     -1.298571      0.601656
Ti       9.32620      5.58783      2.09348        -0.062630     -0.024106     -0.002308
Ti       9.35454      5.69862     14.56052         0.604583     -0.432984     -2.190626
Ti       9.34835      5.64485      6.13385        -0.718342      0.437520      0.930821
Ti       9.34869      5.59188     10.36495         0.607366     -0.120937      0.017849
Ti       9.30207      9.36159      2.18393         1.165171      0.397302     -0.115901
Ti       9.35674      9.45919     14.41210         0.006708     -0.375714      0.688600
Ti       9.32738      9.38632      6.18382         0.631005     -0.252315      1.383230
Ti       9.47321      9.32696     10.33930        -0.768513      0.830575      0.037451
O       1.80524      1.97670      0.35630         0.381192     -0.347902     -0.632781
O       1.65193      1.89314     12.60935         0.768820     -0.351857      0.604437
O       1.79891     13.05314      0.29969         0.265453      0.344685     -0.030034
O       1.78160     13.17583     12.59720         0.686392     -0.180527      0.155312
O      13.22551      1.88075      0.37654        -0.516599      0.118135     -0.947789
O      12.99553      1.84436     12.61735         0.821317     -0.144766      1.271361
O      13.04789     13.05682      0.30516         0.356334      0.487759      1.002708
O      13.10425     13.19866     12.66131         0.253069     -0.115667     -0.232675
O       1.83059      1.89526      4.35031         0.202891     -0.361659      1.006106
O       1.82596     13.12271      4.30114         0.080999      0.114605      1.026938
O      13.14959      1.80315      4.48169        -0.249749      0.126063     -0.377020
O      13.10389     13.05997      4.40942         0.072712      0.396355     -0.441273
O       1.89928      1.71827      8.63028        -0.354426      0.526447     -0.179702
O       1.79665     13.09006      8.45346        -0.207721     -0.062957      0.782714
O      13.07702      1.93753      8.53991         0.183112     -0.345618      0.097839
O      13.17728     13.16461      8.51227        -0.093434     -0.259731      0.207919
O       1.93791      5.65305      0.35782        -0.270049     -0.146476     -0.309702
O       1.92689      5.72757     12.66096        -0.236490     -0.317439     -0.498652
O      13.00012      5.62602      0.36323         0.449808     -0.060995     -0.398195
O      13.16705      5.64410     12.69535        -0.634043     -0.284100      0.845209
O       1.78709      5.54369      4.41196         0.317760      0.164255      0.476619
O      13.05205      5.69130      4.46767        -0.084918     -0.309293     -1.404724
O       1.85044      5.54586      8.50862         0.022330      0.482491      0.737951
O      13.11551      5.58470      8.58095        -0.175011      0.168539     -0.360265
O       1.80999      9.35899      0.43339         0.010955     -0.102558     -0.948575
O       1.86127      9.27761     12.70462         0.307436      0.172040     -0.287899
O      13.09508      9.38266      0.36686        -0.279615      0.044922     -0.083997
O      13.12889      9.34750     12.58799         0.128019      0.186690      0.248325
O       1.88400      9.37300      4.39549        -0.394233      0.133688     -0.571740
O      13.03202      9.43967      4.37279         0.083463     -0.298508      0.696445
O       1.78369      9.46872      8.60910         0.292059     -0.351780     -1.681430
O      13.15531      9.30043      8.48107         0.045541      0.324882      0.424514
O       5.60017      1.93062      0.33176        -0.055782     -0.265500      0.483058
O       5.67226      1.76639     12.71463        -0.098103      0.165526     -0.445862
O       5.46728     13.07407      0.37418         0.239783      0.152759     -0.652737
O       5.59626     13.15365     12.68827        -0.241463     -0.291620     -0.005449
O       5.54034      1.80824      4.44943        -0.345169      0.263831     -0.616907
O       5.60814     13.14900      4.45340        -0.124712     -0.169799     -0.985563
O       5.54060      1.70290      8.53466        -0.095945      0.791470      1.338414
O       5.65348     13.11221      8.50985        -0.121711     -0.181199      0.631383
O       5.80066      5.63546      0.40403        -0.349063     -0.074353     -1.038654
O       5.59972      5.61216     12.61524        -0.166099      0.074644      0.225660
O       5.52425      5.64879      4.44357         0.287130     -0.174736     -1.081203
O       5.55664      5.53318      8.54150        -0.091887      0.241923      0.614621
O       5.46141      9.45896      0.41141         0.699250     -0.320781     -0.881693
O       5.70862      9.27524     12.64039        -0.482079      0.271912      0.227724
O       5.52688      9.23450      4.38797         0.619795      0.697697      0.920756
O       5.74812      9.39762      8.58921        -0.520714     -0.239969     -1.205124
O       9.32964      1.85465      0.34558         0.339091     -0.442109      0.344085
O       9.32108      1.79141     12.66033        -0.021452      0.149078     -1.020663
O       9.45207     13.18586      0.41255        -0.193933     -0.053415      0.547946
O       9.38255     13.06627     12.61738        -0.248451      0.161813     -0.297468
O       9.22956      1.91498      4.39280         0.854162     -0.077534     -0.159739
O       9.36931     13.30139      4.44993        -0.326734     -0.603622     -0.205128
O       9.28570      1.90026      8.53377        -0.020411      0.169613     -0.840692
O       9.28106     13.17823      8.49799         0.445970     -0.288903      0.460569
O       9.27093      5.65245      0.28568         0.043059      0.041574      0.124942
O       9.46104      5.70884     12.69744        -0.566435     -0.152946      0.714527
O       9.34046      5.56099      4.35877         0.308234     -0.059615      0.264252
O       9.36076      5.53478      8.56296        -0.188426      0.267130      0.470315
O       9.41680      9.56041      0.43360        -0.224883     -0.765565     -1.079305
O       9.36779      9.45306     12.65632         0.087132     -0.258460     -0.624002
O       9.24621      9.29027      4.42125         0.364500      0.536204     -0.661704
O       9.33910      9.36727      8.52852         0.184669     -0.069003     -0.200150
O       3.69001      1.92934      2.40587        -0.017334      0.474249      0.182095
O       3.75214      1.92267     14.79558        -0.708796     -0.203227     -0.274742
O       3.68809     13.10683      2.45534        -0.121762     -0.521149     -0.108700
O       3.71991     13.18721     14.72358        -0.284792     -0.473227     -0.036977
O      14.92285      1.77674      2.42498         1.548917      0.202992      0.115081
O       0.04783      1.85458     14.80318        -1.128457      0.287754     -0.242426
O      14.95255     13.21927      2.47148         1.736404     -0.100702     -0.523753
O      14.99733     13.18237     14.73762         0.493704      0.130317     -0.081053
O       3.62544      1.68301      6.63922         1.112213     -0.119177     -0.461889
O       3.67521     13.03997      6.57622         0.703074      0.971577     -0.385385
O      14.95083      2.10712      6.49773         2.229748     -0.616683      0.588070
O      14.98252     12.84382      6.43266        -0.411021      0.226886      0.134502
O       3.68314      1.93688     10.89476         0.671869     -0.287475     -0.899216
O       3.73363     13.17598     10.61982        -0.151524     -0.587661      0.156646
O      14.94691      1.79045     10.58746        -0.417894     -0.071005      0.288715
O       0.04156     13.13643     10.73453        -0.686352      0.212341     -0.674008
O       3.76537      5.56134      2.39479        -0.571830      0.023871     -0.009724
O       3.77689      5.59943     14.83460        -0.113780      0.124290     -0.163336
O      14.96614      5.63857      2.33232         0.160432      0.371297      0.316210
O       0.03470      5.58998     14.82061        -1.238449      0.436512     -0.054055
O       3.71323      5.82499      6.47086         0.692192     -0.815807      0.089046
O      14.92418      5.43380      6.55330         1.582070      0.759642     -0.068348
O       3.66742      5.58483     10.63549         1.091353     -0.234835      0.006621
O      14.90110      5.69566     10.74534         1.384840      0.133507     -0.542133
O       3.66858      9.41571      2.42787         0.316941      0.288174      0.193338
O       3.77765      9.42378     14.78058        -1.632617     -0.302679     -0.387433
O      14.89389      9.24597      2.43282         0.560406     -0.065519      0.265005
O      14.92733      9.32247     14.81099         0.952575      0.271061     -0.369615
O       3.78412      9.42199      6.54237        -0.637786     -0.888389      0.448394
O      14.95384      9.51168      6.57768         0.570422     -0.012440     -0.501094
O       3.75061      9.42617     10.62499         1.049310     -0.562826      0.339056
O       0.04777      9.29182     10.70809        -0.718089     -0.147292     -0.221635
O       7.40579      1.78856      2.48211         1.052109      0.067773     -0.337924
O       7.51374      1.92627     14.82048        -0.240578     -0.733160     -0.244063
O       7.40020     13.24434      2.37146         1.714798      0.056096      0.238613
O       7.54782     13.12851     14.81938        -1.541613      0.152974      0.053232
O       7.38762      1.86926      6.43957         1.271769      0.511726      0.368053
O       7.47332     13.21625      6.54768         0.640099     -0.411308     -0.284909
O       7.43953      1.84999     10.66648        -0.226718     -0.344381      0.009839
O       7.47894     12.99066     10.78722        -0.305601      0.834333     -0.807545
O       7.50431      5.56256      2.68832        -0.201669      0.564199     -1.124450
O       7.48448      5.66749     14.65071        -0.110832      0.241750      0.327119
O       7.43522      5.54699      6.63481         0.362242     -0.031632     -0.644646
O       7.48858      5.67757     10.65020        -0.238209     -0.403283     -0.030377
O       7.46782      9.26704      2.33219        -0.648959      0.096809      0.412780
O       7.48900      9.36772     14.77378        -0.145643      0.065967      0.342947
O       7.47077      9.40353      6.54324         0.750854      0.057172     -0.026901
O       7.59382      9.35730     10.57879        -1.420426     -0.459517      0.481601
O      11.25651      1.96111      2.52364        -0.649823     -0.471420     -0.605786
O      11.24580      1.80551     14.78635         0.256030      0.182896     -0.012983
O      11.27603     13.10308      2.50075        -0.551084      0.116842     -0.076198
O      11.20674     13.19449     14.66233         1.479595      0.138944      0.563590
O      11.24597      1.75541      6.55160        -1.087575      0.404699     -0.246898
O      11.21594     13.38280      6.51633         0.984137     -0.416133     -0.136530
O      11.14987      1.74657     10.61424         1.246670      0.800922     -0.044283
O      11.22777     13.23141     10.75467         0.135168     -1.196175     -0.972801
O      11.16474      5.48906      2.44172         0.042031     -0.079165     -0.062541
O      11.28853      5.70858     14.88837        -1.076205     -0.548687     -0.487907
O      11.12761      5.68749      6.58518         1.444412     -0.161288     -0.189726
O      11.19855      5.46971     10.82172         0.920870      0.173372     -0.849339
O      11.17381      9.58409      2.46481         1.085394     -1.019109     -0.075330
O      11.25712      9.46347     14.67392        -0.916108     -0.176290      0.427606
O      11.24510      9.31025      6.72331        -1.384317      0.214698     -0.911092
O      11.32683      9.53320     10.67576        -0.357630     -0.343132     -0.431023
O       1.80629      3.72446      2.41028        -0.055094      1.096782     -0.066391
O       1.88474      3.79838     14.65366         0.032035     -1.747758      0.283134
O       1.99139      0.01067      2.33868        -0.760365     -0.849151      0.010349
O       1.88872      0.01782     14.71223        -0.052267     -0.639395      0.148155
O      13.16642      3.73133      2.55352        -0.386032     -0.517996     -0.444024
O      13.09671      3.75411     14.82007         0.044450     -1.024446     -0.275731
O      13.14360     14.96260      2.46143        -0.747318      0.810791     -0.117861
O      13.18266      0.02364     14.93687        -0.349145     -0.600546     -0.700513
O       2.11684      3.69757      6.56822        -0.597348      0.572344     -0.253588
O       1.68627     14.94391      6.53075        -0.073207      0.884387     -0.354992
O      13.05390      3.74959      6.49641        -1.080765      0.166792      0.242251
O      13.31594      0.00028      6.53168         0.063720     -0.478842      0.095388
O       1.74095      3.76971     10.77213         0.161848     -0.226990     -0.430815
O       1.88208     15.00418     10.72046         0.046584     -0.835650     -0.178151
O      13.26025      3.72160     10.67031        -0.837401     -0.401803      0.097226
O      13.09598     14.93959     10.60901         0.339255      1.496632      0.115063
O       1.86669      7.51324      2.59426        -0.199180     -0.956384     -0.814217
O       1.83431      7.46504     14.81620         0.507652      0.819358      0.032705
O      12.94609      7.40381      2.48001        -0.007070      1.537146     -0.159661
O      13.07388      7.50736     14.79089         0.241466     -0.181835     -0.079832
O       1.77511      7.50959      6.52011        -0.197809     -0.065939      0.217410
O      13.06160      7.52972      6.50445         0.634944     -0.576301      0.126983
O       1.91890      7.46395     10.74036        -0.069505      0.180915     -0.601156
O      13.01163      7.51555     10.71561         0.123951     -0.607931     -0.853845
O       1.72821     11.23196      2.42881         0.039318      0.425705     -0.019303
O       1.79700     11.25042     14.67503         0.292353     -0.206570     -0.029721
O      13.28635     11.29977      2.46624        -0.763255     -1.476738     -0.368321
O      13.11218     11.29957     14.72976         0.137395     -1.081492     -0.217012
O       2.07198     11.24071      6.38587        -0.979612     -0.042506      0.191656
O      12.85055     11.26552      6.58003         0.461641      0.775947     -0.380023
O       1.84301     11.21626     10.75472         0.289588      1.000324     -0.302289
O      13.27012     11.21719     10.63564        -0.380936      0.963475     -0.179056
O       5.61749      3.77503      2.52041        -0.011921     -1.029684     -0.096204
O       5.70249      3.69796     14.80301        -0.646718      1.393420     -0.434781
O       5.44435      0.06385      2.45720         0.174469     -1.762176     -0.229450
O       5.61425     14.96274     14.85582         0.057703      0.188948     -0.015579
O       5.40500      3.65734      6.48379         0.041225      1.655407      0.011953
O       5.55258     14.97295      6.54618        -0.074774     -0.469605      0.001233
O       5.65847      3.70293     10.63739        -0.265627     -0.388758      0.093992
O       5.58061     14.94885     10.72534         0.070804      0.248792     -0.224549
O       5.46566      7.45482      2.48749         0.996187      0.331672     -0.697311
O       5.60151      7.50547     14.88005         0.060213     -0.531702     -0.373647
O       5.60305      7.47719      6.55471         0.475142      0.131333      0.365354
O       5.67186      7.43628     10.64456        -0.639072      0.425836     -0.194524
O       5.72604     11.25518      2.49699        -0.352806     -0.242334      0.119506
O       5.67083     11.24801     14.76730        -0.415654     -0.579281     -0.111812
O       5.62963     11.23840      6.53612         0.138113     -0.268029      0.000235
O       5.58453     11.19760     10.64965        -0.053612      0.701777      0.237378
O       9.22780      3.69780      2.21863         0.175694      0.569740      0.971088
O       9.40196      3.77583     14.64816         0.233506     -0.291775      0.435066
O       9.46005      0.03486      2.54158        -0.325490     -0.275815     -0.641276
O       9.32862     15.00101     14.73116        -0.059665      0.558038      0.296453
O       9.42618      3.79602      6.57886        -0.746034     -1.310636     -0.560333
O       9.33369      0.10432      6.68160        -0.342267     -0.363984     -0.755244
O       9.26946      3.67957     10.65070         0.285649      0.402210      0.059235
O       9.30301     14.96862     10.57892        -0.466800     -0.260145      0.272178
O       9.40300      7.42236      2.43139        -0.056718      1.287943     -0.225048
O       9.39455      7.56293     14.82026        -0.096834      0.632686      0.088983
O       9.32360      7.51034      6.49244        -0.373355      0.100027      0.034318
O       9.51689      7.48774     10.59663        -0.079625     -0.396028      0.171280
O       9.37246     11.27966      2.49221        -1.092607      0.583414      0.393388
O       9.34367     11.29975     14.79915         0.211650     -0.624893     -0.012024
O       9.42742     11.33005      6.53064        -0.073697     -0.704443     -0.321011
O       9.28620     11.18865     10.61005         0.792441      1.497109      0.042141
