  # total energy = -7865.26226276 
CRSYTAL
PRIMVEC
    15.010000000000000    0.0000000000000000    0.0000000000000000
     0.0000000000000000   15.010000000000000    0.0000000000000000
     0.0000000000000000    0.0000000000000000    16.400000000000000
PRESSURE
16.9255 17.0909 6.83409 0.02182 -0.095803 0.0658
PRIMCOORD
320 1
Pb       3.62388      3.62877      4.06191         0.923931      0.192387     -0.184991
Pb       3.63113      3.71102     16.37468         0.408235      0.207741     -0.385850
Pb       3.80710     14.91372      4.14338        -0.218023      0.186284     -0.013495
Pb       3.83671     14.98784      0.10485        -0.348966      0.034911     -0.887786
Pb      14.98390      3.81064      4.20247        -0.148185      0.087897     -0.267957
Pb      14.90198      3.66669      0.16595         0.265500      0.247151     -1.370437
Pb      14.89143      0.01442      4.26253         0.630283      0.044088     -0.269263
Pb       0.06105      0.00122      0.12636        -0.072528     -0.031968     -0.858098
Pb       3.55466      3.70830      8.22934         0.558680      0.266023     -0.050310
Pb       3.72560      0.19048      8.25161        -0.341677     -0.695471     -0.711354
Pb      14.82454      3.71107      8.23162         0.082605     -0.011152     -0.105592
Pb      14.91416      0.04399      8.22418         0.241543     -0.276708     -0.524297
Pb       3.75539      3.63895     12.43174        -0.293865      0.394871     -0.186382
Pb       3.64380     14.98938     12.29934         0.519901     -0.042921     -0.096533
Pb      14.88981      3.79922     12.34392         0.222459     -0.008030      0.396616
Pb      14.96762     15.00249     12.33162         0.212838     -0.145542      0.004723
Pb       3.90124      7.55693      4.20293        -0.207010     -0.749876     -0.328409
Pb       3.76088      7.59284      0.01545         0.423407     -0.380643     -0.792715
Pb       0.18258      7.54540      4.17834        -0.842683     -0.304991     -0.364181
Pb       0.08220      7.40951      0.08814        -0.601488      0.012469     -1.051730
Pb       3.71747      7.52915      8.36877         0.295077     -0.178429     -0.503671
Pb       0.05524      7.54427      8.26027        -0.186205     -0.157387      0.098526
Pb       3.65003      7.33524     12.37275         0.346853      0.622840     -0.050781
Pb      14.90698      7.51597     12.29485         0.140807     -0.150521      0.530760
Pb       3.90650     11.05211      4.13464        -0.339500      0.488715      0.064409
Pb       3.76737     11.24912      0.19607         0.309156      0.036413     -1.260193
Pb       0.10541     11.14774      4.18872        -0.300217      0.252216     -0.756844
Pb       0.09849     11.22938      0.15914        -0.294684      0.211153     -0.914210
Pb       3.70916     11.30568      8.25209         0.017115     -0.262397     -0.412387
Pb       0.06951     11.28134      8.17262        -0.130198      0.337223      0.165716
Pb       3.72317     11.14091     12.33124         0.292122      0.359754     -0.070638
Pb       0.00967     11.22870     12.30061        -0.357436      0.265892     -0.105606
Pb       7.40635      3.89399      4.07147        -0.041711     -0.951414     -0.073542
Pb       7.44272      3.69532      0.10728        -0.200630     -0.368421     -1.014117
Pb       7.52968     14.91707      4.07935        -0.388870      0.305968      0.344495
Pb       7.58298     14.85939      0.04516        -0.101666      0.884832     -0.335036
Pb       7.41727      3.79254      8.30387        -0.052513      0.222762     -0.562361
Pb       7.38799      0.04016      8.27379        -0.364663     -0.290703     -0.415115
Pb       7.36341      3.76655     12.40975         0.012382     -0.109250     -0.277059
Pb       7.41682      0.05682     12.21928        -0.131583     -0.599365      0.329318
Pb       7.66408      7.41725      4.14557        -0.556999      0.662158      0.333149
Pb       7.51219      7.39328     16.37831        -0.616969      0.680176     -0.317439
Pb       7.60532      7.40473      8.22177        -0.641225     -0.068600     -0.004184
Pb       7.45536      7.59317     12.22793        -0.537517     -0.292267      0.511410
Pb       7.56148     11.07683      4.16572        -0.204966      0.287483      0.077811
Pb       7.46766     11.25794      0.00099        -0.368289     -0.312134     -0.395918
Pb       7.59687     11.28027      8.20611        -0.077125      0.111431     -0.276842
Pb       7.48946     11.34298     12.23611        -0.171857     -0.036698      0.172091
Pb      11.28177      3.76932      4.19391        -0.443237      0.380961     -0.270970
Pb      11.24401      3.76948      0.11197         0.161357     -0.466014     -0.886776
Pb      11.21967     14.89304      4.08195         0.136886      0.480459     -0.450850
Pb      11.37630     14.97237      0.01711        -0.998731      0.496696      0.049662
Pb      11.18615      3.67313      8.39655        -0.095824      0.504626     -0.571169
Pb      11.18694      0.00127      8.23326         0.511933      0.010973     -0.247821
Pb      11.12192      3.74982     12.34924         0.230857      0.049858     -0.311369
Pb      11.16962     14.85903     12.41794        -0.190379      0.325444     -0.543229
Pb      11.35254      7.50580      4.13865        -0.147860     -0.027370     -0.353755
Pb      11.22578      7.40291      0.01424         0.631663      0.527436     -0.178054
Pb      11.30589      7.45998      8.25399        -0.267454      0.331328      0.428584
Pb      11.01725      7.49470     12.33904         1.428203      0.160410     -0.238974
Pb      11.21807     11.17291      4.11417         0.270687     -0.108273     -0.395610
Pb      11.18874     11.31174      0.03373         0.223118     -0.454369     -0.400316
Pb      11.33813     11.40960      8.22408        -0.328914     -0.728560      0.262999
Pb      11.12979     11.22650     12.34527         0.720674     -0.263906     -0.302800
Ti       1.89779      1.88180      2.05138        -0.535414     -0.292109     -0.178187
Ti       1.89199      1.81020     14.38914        -0.373932      0.547634     -0.087792
Ti       1.86627     13.15504      2.09324        -0.451586     -0.388663     -0.037009
Ti       1.91616     13.10200     14.33001        -0.400344     -0.140898      0.003745
Ti      13.10354      1.89246      2.12875         0.269319     -0.738190     -0.613268
Ti      13.08397      1.80056     14.39233         0.636408      1.222742      1.392103
Ti      13.18138     13.10824      1.96750        -0.243965     -0.495445      1.215899
Ti      13.12548     13.02842     14.36333         0.586778      0.293265     -0.481691
Ti       1.75924      1.93499      6.17438         0.514532     -1.884688     -0.343989
Ti       1.95495     13.11702      6.17614        -0.761473      1.070829      0.589941
Ti      13.02105      1.93863      6.15587         1.030554     -0.320336      0.059148
Ti      13.18966     13.08973      6.08236         0.001174      0.992605      1.101524
Ti       1.77499      1.93454     10.30661        -0.280313      0.133849      0.741765
Ti       1.85663     13.19382     10.24107        -0.196871     -0.195456     -0.716439
Ti      13.01372      1.78036     10.41456         0.212147      1.110919     -0.823924
Ti      13.08055     13.12371     10.23078         0.651372     -0.933083      0.705417
Ti       1.86184      5.59374      2.00550         0.586465      0.275259     -0.041049
Ti       1.82740      5.62873     14.38926        -0.210041     -0.481487      0.013399
Ti      13.10639      5.64087      2.06681         0.208488      0.386236      0.219727
Ti      13.09225      5.63225     14.35423         1.214605     -0.279881     -0.163045
Ti       1.88809      5.61726      6.17364        -0.498547      0.161948     -0.500144
Ti      13.15163      5.75758      6.29137        -0.275285     -0.918619     -0.270448
Ti       1.76228      5.63122     10.29706         0.458063     -0.590092      0.829864
Ti      13.08140      5.59306     10.28695        -1.076385      0.406771      0.851914
Ti       1.82062      9.32604      1.97348         0.453622     -0.271807      1.834018
Ti       1.89624      9.34789     14.36130        -0.025846     -0.215063     -0.098604
Ti      13.07953      9.33538      2.04379        -0.353616      0.664716      0.141792
Ti      13.13673      9.33887     14.40919        -0.290917     -0.079699     -0.397321
Ti       1.93415      9.34080      6.16840         0.065044      0.567563      0.524366
Ti      13.13226      9.42878      6.20010         0.440966     -0.121639     -0.351921
Ti       1.83983      9.42058     10.20485         1.746317     -0.613160      0.364574
Ti      13.18768      9.35880     10.26966        -2.037087      0.591505      0.169208
Ti       5.63473      1.78330      2.04829        -1.105766      1.813620     -0.127781
Ti       5.63229      1.85259     14.41418         0.074346     -0.127239     -0.166498
Ti       5.65452     13.04445      2.10229        -0.020743     -0.354414     -0.076677
Ti       5.61496     13.13046     14.36109        -0.468141     -0.673189     -0.477018
Ti       5.62703      1.90125      6.07789        -0.595242     -0.956943     -0.525647
Ti       5.63110     13.08078      6.26866         0.446817      0.505970     -0.147131
Ti       5.54581      1.85695     10.34843        -0.437994     -0.080523     -0.045439
Ti       5.51128     13.03478     10.17530         1.130741      1.591245      0.396717
Ti       5.57675      5.64188      1.91930        -0.991129     -1.100106      0.721159
Ti       5.63753      5.64395     14.34404        -1.077099     -0.086255     -0.156462
Ti       5.57105      5.58838      6.07972         0.212257      0.209440      0.620632
Ti       5.48628      5.61902     10.26440         0.723106     -0.668396      0.932142
Ti       5.62489      9.26964      2.09945         0.754255      0.486648     -0.815855
Ti       5.66065      9.37266     14.29245        -0.040544      0.407742      0.396473
Ti       5.70349      9.27577      6.34281        -0.163328      0.367389     -0.539470
Ti       5.68784      9.36347     10.24085        -0.662087     -0.156884     -0.368252
Ti       9.31569      1.89851      2.03572         0.617933     -0.848725      0.742747
Ti       9.39504      1.92992     14.33704        -0.495957     -1.222020      0.045881
Ti       9.38967     13.15029      2.09006         0.048855     -0.605072     -0.588445
Ti       9.33246     13.12622     14.34011        -0.229490     -0.047321     -0.291778
Ti       9.30937      1.86155      6.20083        -0.383918      1.690548     -1.327134
Ti       9.44141     13.22603      6.17444        -1.548644     -1.486974     -0.270115
Ti       9.24133      1.84270     10.21594         0.816717      0.383934      2.614820
Ti       9.33328     13.16479     10.20893        -0.132986     -1.314653      0.004291
Ti       9.30464      5.61419      1.97748         0.755430      0.146256      0.631731
Ti       9.34990      5.62493     14.38557         0.400463     -1.094303     -0.692104
Ti       9.39787      5.63220      6.19677        -0.427805     -0.801865      0.489820
Ti       9.25790      5.66594     10.33426         1.081145     -1.376780     -0.748728
Ti       9.34046      9.37397      1.93320        -0.113933     -0.161331      1.643538
Ti       9.37020      9.35446     14.39378         0.070054      1.098956     -0.546047
Ti       9.41759      9.38290      6.32438        -0.292229      0.265673     -0.641388
Ti       9.35775      9.39560     10.29195         1.539312      0.657205     -0.203589
O       1.95638      1.80457      0.16738         0.036326      0.314690      0.979530
O       1.85973      1.74877     12.54270         0.058188      0.229365      0.027214
O       1.66819     13.04309      0.19643         0.871887      0.258786      0.910771
O       1.93935     13.06279     12.44262        -0.436732      0.267032      0.637087
O      13.09278      1.89222      0.21766         0.317749     -0.052799      1.005115
O      12.94028      1.77341     12.62411         0.468030     -0.143869     -1.507875
O      13.20328     13.09926      0.14850        -0.222060     -0.186436      0.021690
O      13.05510     13.12809     12.48725         0.472598      0.110717      0.658184
O       1.74202      1.88171      4.31322         0.175394      0.138837      0.164587
O       1.83349     13.19492      4.32537         0.251453     -0.163938     -0.088451
O      13.13082      1.94419      4.27485        -0.356934     -0.460684      0.097088
O      13.17614     13.03731      4.29828        -0.354507      0.485407     -0.539928
O       1.69251      1.94568      8.49006         0.166702      0.248412     -0.603662
O       1.93985     13.14693      8.36069        -0.024488     -0.247909      1.129643
O      13.14582      1.91365      8.51589        -0.160577     -0.090348      0.153134
O      13.10161     13.07846      8.40512        -0.247946      0.176344     -0.361873
O       1.76950      5.54939      0.16427         0.329624      0.356375      0.879015
O       1.84383      5.73501     12.54094        -0.473923     -0.291681     -0.100866
O      13.18779      5.63955      0.23772        -0.639874     -0.158421      0.726222
O      13.15270      5.73665     12.51173         0.034957     -0.215151      0.168419
O       1.86878      5.47052      4.31721         0.135086      0.726840      0.125509
O      13.00013      5.62349      4.49615         0.212769      0.336924     -1.380770
O       1.83101      5.55199      8.49758        -0.127112      0.166851     -0.908883
O      13.13042      5.60765      8.44651        -0.203719     -0.216877     -0.256894
O       1.82510      9.36554      0.19098         0.210029     -0.024598     -0.363895
O       2.02621      9.45690     12.51337        -0.752230     -0.512307     -0.069130
O      12.94130      9.34253      0.23976         0.648520      0.092618      0.028054
O      13.09675      9.42730     12.57621         0.327033     -0.511939     -0.542674
O       1.85251      9.28274      4.31377         0.423757      0.394520      0.068395
O      13.10333      9.34656      4.35542        -0.337291      0.172531      0.106217
O       1.81108      9.29098      8.34669        -0.101780      0.204209      0.668336
O      13.14084      9.43121      8.44508         0.262655      0.311231      0.203463
O       5.54641      1.90182      0.14405        -0.079763     -0.114406      1.041373
O       5.63936      1.74339     12.52324        -0.583794      0.146802      0.673063
O       5.61848     12.98750      0.26657        -0.093341      0.339976      0.457397
O       5.63935     13.07750     12.53540        -0.041040      0.298045      0.192101
O       5.66916      1.86678      4.19349        -0.219490     -0.484613      1.375932
O       5.63084     13.26698      4.42711        -0.486954     -0.565381     -1.155574
O       5.77520      1.93802      8.51121        -0.666544      0.013933     -0.337155
O       5.39689     13.11315      8.33614         0.907550     -0.041407      0.646920
O       5.63407      5.68272      0.09814        -0.171974     -0.276052      0.369961
O       5.64382      5.68788     12.49489         0.094816     -0.214956      0.089838
O       5.57238      5.67573      4.23430         0.145213     -0.130644      0.739145
O       5.52560      5.41485      8.48009         0.028331      0.172160     -0.134561
O       5.62165      9.43538      0.24307        -0.151519     -0.485430      0.779890
O       5.63933      9.41344     12.47514        -0.034391     -0.159493     -0.372260
O       5.74615      9.32171      4.30856        -0.686549     -0.164671      0.990475
O       5.76455      9.41826      8.37149        -0.227016     -0.267977      0.823924
O       9.33726      1.75294      0.25539         0.051202      0.425400     -0.642103
O       9.43381      1.90967     12.50026        -0.089160     -0.085677      0.371028
O       9.39361     13.28271      0.18751        -0.060949     -0.770037      0.285332
O       9.29927     13.00415     12.45845         0.247919      0.616643      0.736290
O       9.28858      1.88107      4.32272         0.480498     -0.293594      0.517052
O       9.36733     13.15056      4.20174         0.541516      0.217254      1.210556
O       9.18709      1.79606      8.46529         0.379449      0.016741     -1.689854
O       9.40633     13.13369      8.35633         0.274223      0.259631      0.028911
O       9.33826      5.57580      0.13849         0.398018      0.165097      0.374563
O       9.31338      5.65338     12.46970         0.111672     -0.409887      0.563980
O       9.22305      5.54389      4.32425         0.500193      0.355116      0.283855
O       9.44717      5.63562      8.43718        -0.394773      0.197612      0.490567
O       9.31583      9.30253      0.18324         0.522910      0.033026     -0.974113
O       9.34902      9.41370     12.50537         0.115917     -0.415493      0.818030
O       9.17839      9.31813      4.44453         0.851940      0.302845     -0.323394
O       9.36255      9.33303      8.46029        -0.229122      0.286037     -0.309062
O       3.74565      1.76102      2.45164         0.003602     -0.784903     -0.318552
O       3.72812      2.10430     14.61206         0.711606     -0.035845     -0.229777
O       3.70679     13.10923      2.23083         0.815242      0.755839      0.523753
O       3.75043     12.82643     14.66244         0.239486      0.163768      0.190979
O       0.00259      2.16706      2.19447        -0.028527     -0.216804      0.265774
O       0.09791      1.62873     14.65389        -2.160499     -0.251508     -0.126214
O       0.00364     12.86675      2.31022         0.309968     -0.221275     -0.078987
O       0.06247     13.34578     14.51981        -0.956749     -0.016386     -0.301268
O       3.63625      1.92141      6.49602         1.769825     -0.355269     -0.161627
O       3.74175     13.21839      6.47988         0.303083      0.304847     -0.738313
O      14.90772      1.83695      6.34628         0.433933      0.805436      0.473331
O       0.01352     13.07550      6.52142         0.003487     -0.533817     -0.606879
O       3.69100      1.73800     10.53062        -0.018306     -0.485561     -0.238508
O       3.72979     13.20410     10.54049        -0.380286      0.153834     -0.068123
O      14.91783      2.15756     10.66497         0.253113     -0.690463     -0.220514
O       0.01339     12.98389     10.37370        -0.434899     -0.148099      0.581550
O       3.69645      5.91527      2.14380         0.650616      0.191221      0.361137
O       3.77880      5.52563     14.46529        -0.706208     -0.399879      0.451124
O       0.00125      5.43411      2.25088        -1.093852     -0.533014      0.558433
O      14.97501      5.92569     14.63388         0.093123     -0.090017     -0.309929
O       3.67768      5.78096      6.52437         1.113476     -0.586140     -0.286443
O      14.98583      5.47600      6.26820         0.308861      0.521306      0.775725
O       3.64212      5.79042     10.57614         1.188354     -0.018497     -0.293589
O      14.93504      5.37453     10.47978         0.706323     -0.237730      0.225715
O       3.72755      8.92958      2.39336        -0.081409      1.275244     -0.750175
O       3.84248      9.49385     14.60843        -1.856359      0.175758      0.252627
O      14.92976      9.57138      2.32231         0.852061     -0.029413     -0.142562
O      14.97019      8.99590     14.49241         1.146294      0.629328      0.407064
O       3.79476      9.15864      6.58257        -0.424496      0.348509     -0.806095
O       0.01696      9.62719      6.25334        -0.186414     -0.139427      0.552913
O       3.81112      9.16582     10.36715        -0.840209      0.324552      0.064741
O       0.02852      9.54853     10.47951        -0.413285      0.045635      0.349466
O       7.42005      2.03029      2.19224         1.144010      0.509671      0.233599
O       7.52554      1.79330     14.58435        -0.191976     -0.877348      0.146195
O       7.49977     12.85093      2.26930        -0.399037     -0.036588      0.103894
O       7.47144     13.29475     14.69725         0.128616      0.110894     -0.239487
O       7.44213      2.02902      6.36332         1.045254      0.014764      0.268581
O       7.52434     13.05315      6.41892        -0.134115      0.090949      0.208292
O       7.40560      1.85284     10.70728         1.728729      0.727250     -0.662606
O       7.44936     13.02044     10.35421        -0.002843     -0.298183      0.109097
O       7.45201      5.26106      2.03934         0.205084      0.442088      0.767650
O       7.53189      5.69382     14.62357        -0.218417      0.523542     -0.068065
O       7.45973      5.52720      6.47918         0.094008     -0.347124     -0.178674
O       7.45013      5.31427     10.51152         0.056312      0.269276     -0.407073
O       7.49266      9.74896      2.19813         0.380017     -0.711664      0.313610
O       7.52298      9.14069     14.65238         0.148473     -0.276023     -0.104213
O       7.50040      9.55707      6.48348         0.221747     -0.064236     -0.003888
O       7.54362      9.50126     10.63101        -0.971985      0.245509     -0.368575
O      11.24994      1.58714      2.20075        -0.258986     -0.106081      0.586722
O      11.24898      2.15526     14.76058         0.274670     -0.638168     -0.368240
O      11.25786     13.43579      2.14892         0.730102      0.005254      0.629454
O      11.17094     12.75391     14.51997         1.422151      0.659741      0.120059
O      11.25928      1.87238      6.51119        -1.458947     -0.801914      0.058428
O      11.24738     13.34369      6.34226         0.498183     -0.174800      0.023661
O      11.17344      1.64872     10.54210         0.238578     -0.212828     -0.502934
O      11.24212     13.23466     10.43830        -0.101928      0.400871      0.023906
O      11.18914      5.82537      2.43850         0.059892     -0.108723     -0.671259
O      11.30641      5.28977     14.59114        -1.609829      0.311229      0.319846
O      11.24870      5.89803      6.45440        -0.463240     -0.070579     -0.300325
O      11.21235      5.84744     10.58919        -0.078691     -0.091978     -0.412204
O      11.17907      9.06531      2.25961        -0.033234      0.088015      0.616354
O      11.24884      9.65106     14.57167        -0.850202     -0.120104      0.269772
O      11.26005      9.21895      6.45940        -0.470570     -0.007177     -0.169504
O      11.21563      9.09831     10.55155         0.459201      0.237758     -0.234152
O       2.16711      3.72378      2.24357        -0.480769      0.843283     -0.173890
O       1.69285      3.80049     14.61934         0.037764     -1.091639     -0.132159
O       1.78846      0.04279      2.19858        -0.485560     -1.699705      0.356167
O       2.24292     14.95322     14.56824        -0.127148     -0.224678      0.208688
O      12.85960      3.77351      2.30890         0.121604     -0.234771      0.080410
O      13.37939      3.74199     14.57761         0.247760     -0.557682     -0.023379
O      13.51559     14.94760      2.28356        -0.759713      1.078955      0.080457
O      12.95206     14.95141     14.66237        -0.184805     -0.105087     -0.418222
O       1.86933      3.75705      6.42302        -0.061216      0.333105      0.336628
O       1.86758      0.04786      6.54804        -0.351053     -0.469570     -0.563746
O      12.99551      3.80023      6.37498         0.131790     -0.295381      0.346130
O      13.24691     14.97694      6.37217        -0.558623      0.569472     -0.209454
O       2.14526      3.70965     10.64501        -0.751575      1.421352     -0.282720
O       1.66822      0.06270     10.43818         0.071778     -1.019347      0.330436
O      12.92187      3.73509     10.66605        -0.404161      0.023181     -0.299239
O      13.30893     14.97704     10.41145         0.238765      0.273583      0.524235
O       1.55437      7.47417      2.28286         0.105490     -0.189689     -0.041947
O       2.07041      7.48128     14.77431         0.101019      0.586460     -0.319283
O      13.27870      7.50215      2.43270         0.020377     -0.750067     -0.123315
O      12.83148      7.47208     14.68708        -0.335657      0.348343     -0.084399
O       1.72878      7.52332      6.37598        -0.514904     -1.079291      0.125927
O      13.32306      7.64937      6.65211        -0.102957     -1.904958     -0.590796
O       1.66634      7.50808     10.52084        -0.028033      0.038158     -0.325651
O      13.40493      7.47947     10.45024        -0.237121      0.260908     -0.198786
O       2.03789     11.14206      2.22974         0.106920      0.746416      0.441702
O       1.73206     11.17325     14.57677        -0.594567      0.450942      0.256701
O      12.87998     11.26135      2.34734        -0.354488     -0.343110     -0.315320
O      13.37474     11.23463     14.56691         0.427784     -0.024569      0.443624
O       2.01768     11.20669      6.43508         0.120783      0.889567     -0.213761
O      12.86234     11.28194      6.37806         0.292856     -0.059515      0.187460
O       1.97353     11.26400     10.38642         0.412916     -0.538968      0.089710
O      12.97886     11.24223     10.51789         0.018862     -0.244727     -0.002707
O       5.35217      3.76340      2.25218         0.132889      0.292921     -0.171103
O       5.75290      3.72094     14.46474         0.242254      0.736723      0.250434
O       5.78941     14.96970      2.25388        -0.311662     -1.250421     -0.000419
O       5.39009      0.00142     14.68105         0.008386     -0.787007     -0.027503
O       5.57358      3.73554      6.17039        -0.566475      0.769035      0.709065
O       5.78409      0.04464      6.45590        -0.847139      0.014491      0.036547
O       5.47465      3.68933     10.65801        -0.242106      0.962981     -0.005682
O       5.69714     14.94307     10.47520         0.000485     -0.026127     -0.123518
O       5.92290      7.45841      2.35858         0.260641     -0.204106     -0.467664
O       5.45227      7.50552     14.58037         0.479137     -0.176502      0.185891
O       5.72461      7.39894      6.60071         0.051390      0.912331     -0.526638
O       5.81041      7.47465     10.50707         0.080203     -0.273871     -0.445018
O       5.39811     11.14145      2.35524        -0.416573      1.117378      0.252344
O       5.77705     11.23039     14.56822         0.724279      0.391819      0.202771
O       5.47377     11.21661      6.34516        -0.097644     -0.112514     -0.079586
O       5.54873     11.22100     10.40466        -0.288897     -0.261677      0.334687
O       9.51423      3.74064      2.23489         0.324667     -0.251364      0.131898
O       9.22015      3.73675     14.55808        -0.001166      0.485623      0.242369
O       9.05996     14.95680      2.22491         0.042765      1.077385      0.636810
O       9.65026     14.96324     14.44819        -0.089376      0.649099      0.313790
O       9.52891      3.76992      6.46033        -0.025031     -0.072842      0.094084
O       9.30744      0.06208      6.49646        -0.202715     -0.691796     -0.208888
O       9.64182      3.67625     10.28443        -0.658689      0.656778      0.835703
O       9.23768     14.93078     10.49058        -0.071608      1.631941      0.303361
O       8.98296      7.44849      2.23757         0.342125      0.515147     -0.075843
O       9.67844      7.42767     14.55863        -0.276835      1.061643      0.334368
O       9.12712      7.52548      6.49784         0.559759     -0.435646     -0.500291
O       9.02552      7.48941     10.47457         0.644411     -0.003945      0.047678
O       9.70082     11.23567      2.21246        -0.299252     -0.060661      0.144756
O       9.09130     11.23889     14.62462         0.212513     -0.459544      0.049248
O       9.45755     11.32059      6.45245         0.421040     -0.391545     -0.231391
O       9.51270     11.28982     10.52909        -0.167366     -1.114537     -0.523738
