  # total energy = -7880.40567255 
CRSYTAL
PRIMVEC
    15.3600000000000000    0.0000000000000000    0.0000000000000000
     0.0000000000000000   15.3600000000000000    0.0000000000000000
     0.0000000000000000    0.0000000000000000    17.440000000000000
PRESSURE
0.785955 1.00008 -4.58071 -0.34415 -0.285174 0.001551
PRIMCOORD
320 1
Pb       3.85797      3.83488      4.27830        -0.070822     -0.333241     -0.477142
Pb       3.76372      3.88734     17.39634         0.081549      0.091207      0.056475
Pb       3.87516     15.34849      4.26926        -0.104414     -0.209187     -0.040491
Pb       3.94383     15.32111      0.02660        -0.607231      0.382666     -0.027917
Pb      15.31093      3.90608      4.31359        -0.165245     -0.200027      0.125724
Pb      15.22246      3.72053     17.34920         0.154402      0.713243      0.433282
Pb      15.30448      0.00525      4.39415        -0.519156     -0.349176     -0.251146
Pb       0.16695      0.04843     17.37458        -0.452102     -0.427919      0.492498
Pb       3.97174      3.86989      8.61448        -0.335713     -0.211310      0.444285
Pb       3.80495     15.29302      8.66436         0.044840      0.135806      0.204656
Pb       0.15871      3.74005      8.70861        -0.445798      0.522547     -0.167690
Pb       0.12277     15.28965      8.63036        -0.784449      0.021550     -0.344882
Pb       3.91560      3.93448     13.10281        -0.703550     -0.346125     -0.088944
Pb       4.01340      0.05194     13.19484        -0.448176     -0.163245     -0.240892
Pb      15.29184      3.88575     12.95060         0.040469      0.341013      0.023070
Pb      15.32222     15.35552     13.04911        -0.278861     -0.262588     -0.015898
Pb       3.77653      7.64660      4.35244         0.327527      0.373865     -0.136662
Pb       3.89089      7.76127     17.42735        -0.316073     -0.375174     -0.273776
Pb      15.18686      7.52809      4.31624         0.215700     -0.004923      0.221837
Pb       0.19103      7.60278      0.00052        -0.779881      0.053165      0.175447
Pb       3.75781      7.65241      8.63459         0.000068     -0.003135     -0.055246
Pb      15.30319      7.73283      8.63499         0.105550     -0.351383      0.416694
Pb       3.87086      7.78246     13.08760        -0.672392      0.116550     -0.427743
Pb      15.26836      7.73529     12.94682         0.306072     -0.332819     -0.113776
Pb       3.90793     11.41861      4.40304        -0.246936      0.312990     -0.285617
Pb       3.67843     11.50311      0.02411         0.551121     -0.075779     -0.208306
Pb      15.29935     11.36727      4.36375         0.186711      0.733865      0.051070
Pb       0.08068     11.40468      0.08648        -0.335250      0.283621     -0.115725
Pb       3.80179     11.46044      8.65397         0.168220      0.005568      0.135370
Pb       0.08207     11.64726      8.63322        -0.700662     -0.489504      0.061283
Pb       3.74589     11.57798     13.04063         0.050078     -0.577584     -0.093827
Pb      15.15742     11.45819     12.95142         0.764791     -0.178361      0.471321
Pb       7.57289      3.94555      4.23266         0.072863     -0.196569      0.261775
Pb       7.67100      3.80656      0.00086        -0.429234      0.193510     -0.249554
Pb       7.55305     15.29626      4.29660         0.433920     -0.039873      0.201948
Pb       7.82601     15.25665      0.02413         0.136550      0.215599     -0.270292
Pb       7.69096      3.84076      8.63948         0.139365     -0.683678      0.359714
Pb       7.70117      0.10548      8.70755        -0.246693     -0.249711      0.229278
Pb       7.55565      3.68348     13.00248        -0.057461      0.122136      0.108598
Pb       7.69353     15.13711     13.13869         0.221463      0.237127     -0.546525
Pb       7.64557      7.78789      4.39209         0.219533      0.038325     -0.276467
Pb       7.70167      7.57313     17.37535        -0.062714      0.356889      0.300732
Pb       7.69381      7.55741      8.74256         0.234521      0.330194     -0.593931
Pb       7.78880      7.66089     13.12240        -0.501387      0.148613     -0.274614
Pb       7.64364     11.48354      4.31356         0.111052     -0.037043     -0.047009
Pb       7.67193     11.44021     17.32683         0.219577     -0.269023      0.635190
Pb       7.73076     11.50451      8.79769        -0.099855     -0.431299     -0.570348
Pb       7.56017     11.51306     13.05910         0.252026     -0.089267     -0.101220
Pb      11.57627      3.92690      4.35056        -0.471497     -0.275233      0.140057
Pb      11.34799      3.78973     17.37718         0.225752      0.327185     -0.007097
Pb      11.54967      0.11029      4.37017        -0.535601     -0.646831      0.330848
Pb      11.64281      0.06808     17.37888        -0.516282     -0.764250      0.903343
Pb      11.66854      3.67195      8.67686        -0.518478      0.396099      0.222567
Pb      11.52009      0.05031      8.68862         0.176725     -0.182936     -0.075130
Pb      11.42668      3.88430     12.88734         0.854999     -0.305802      0.467146
Pb      11.44774     15.32503     13.13122         0.146409     -0.093027     -0.371430
Pb      11.53793      7.65427      4.42856        -0.384613     -0.055342     -0.502969
Pb      11.43358      7.71534     17.32860         0.626358     -0.487674      0.344931
Pb      11.50615      7.62417      8.67665        -0.269269     -0.017913      0.164908
Pb      11.60718      7.65209     13.08104         0.156322      0.078135     -0.332544
Pb      11.41100     11.55931      4.34728         0.098100      0.385559     -0.134263
Pb      11.59382     11.54813     17.41036        -0.137932     -0.002427     -0.074664
Pb      11.39850     11.52986      8.72793         0.465412     -0.155200     -0.175358
Pb      11.45229     11.58930     13.09361        -0.202333     -0.045281     -0.346471
Ti       1.76203      1.92123      2.38074         1.349998      0.004189     -1.277676
Ti       1.80338      1.96422     15.37775         0.928597      0.058409     -1.024560
Ti       1.83405     13.44159      2.43834         0.228537     -0.602252     -0.458918
Ti       1.89418     13.45457     15.36681        -0.355799      0.230677     -1.492723
Ti      13.35707      1.91064      2.35587        -0.351640     -0.421737     -0.848442
Ti      13.30992      1.93100     15.39988        -0.765870     -0.121964     -2.222631
Ti      13.36980     13.39110      2.38742         0.079042      0.487627     -0.717212
Ti      13.50000     13.39560     15.43228        -0.659226      0.190216     -1.539326
Ti       1.89749      1.79822      6.49687        -1.042983      0.657106     -0.434608
Ti       1.95248     13.39799      6.52010        -0.859422     -1.039007     -1.501807
Ti      13.45364      1.90324      6.66055        -0.560486     -0.938921     -0.617937
Ti      13.34311     13.42584      6.66312        -0.392648     -0.024894      0.154250
Ti       1.83482      1.84554     11.11737         0.845028      1.345069     -1.003050
Ti       1.90063     13.45086     11.15911        -0.715382     -0.478355     -0.631720
Ti      13.36656      1.83612     11.09442        -1.232330     -0.061074     -1.759630
Ti      13.39943     13.39512     11.07114        -1.060373     -0.002429     -1.670797
Ti       1.88931      5.73990      2.37100         0.084680     -0.479994     -1.322909
Ti       1.80217      5.74932     15.38632         0.709253      0.321036      0.118586
Ti      13.30710      5.70405      2.16026         0.218403      0.292595     -1.313167
Ti      13.38467      5.76194     15.37750        -0.306202      0.262439     -0.794985
Ti       1.91891      5.62632      6.56175        -1.775421      0.353157     -1.027368
Ti      13.38161      5.71683      6.73441         0.683735      0.054137      0.286541
Ti       1.95606      5.74248     11.01978        -1.098254      0.365603     -0.158705
Ti      13.40205      5.74046     10.99920         0.482672      0.007193     -2.015084
Ti       1.97807      9.54414      2.38760        -0.770043      0.715268     -0.945368
Ti       1.89446      9.63006     15.37442         0.556113     -0.778123     -1.493027
Ti      13.48497      9.50737      2.41225        -1.526318      0.247535     -1.366879
Ti      13.53254      9.56980     15.42784        -1.158582     -1.018346     -1.573909
Ti       1.90841      9.52879      6.67868        -0.373449     -0.004167      0.029666
Ti      13.38599      9.59124      6.68772         0.199038      0.025765     -0.182545
Ti       1.92410      9.61927     11.01127        -0.651070     -0.568335      0.459568
Ti      13.32710      9.57240     10.99591         0.996051     -0.399241     -1.371285
Ti       5.68286      1.91464      2.28129         0.084281     -0.170514     -0.303874
Ti       5.69947      1.88450     15.41196        -0.601693      1.197477      0.037034
Ti       5.69287     13.35867      2.23257        -1.032230      0.296176     -0.651763
Ti       5.67709     13.36570     15.52412         0.912147     -0.364361     -0.946290
Ti       5.61846      1.84903      6.62185         0.785718      0.359096     -1.007424
Ti       5.71818     13.43113      6.75039         0.382196     -0.237881     -1.133011
Ti       5.63963      1.84485     11.05621         0.617506     -0.436230     -0.143180
Ti       5.69729     13.35125     11.03346         0.164016      0.017169     -1.504015
Ti       5.70232      5.81153      2.23850         0.345910     -0.413333     -1.287282
Ti       5.69974      5.79392     15.40386         0.380896     -0.909386      0.368364
Ti       5.70654      5.72290      6.59013         0.890576      0.517606     -0.132283
Ti       5.72674      5.72468     11.06228        -0.662592     -0.078604     -1.525279
Ti       5.77154      9.54713      2.33018         0.875745      0.099030     -0.873624
Ti       5.79891      9.59533     15.35628        -0.715578     -0.280047      0.001920
Ti       5.80225      9.61082      6.78638         0.370724     -0.461540     -1.215020
Ti       5.76950      9.50901     10.97834        -1.512912      0.806636     -0.813050
Ti       9.47919      1.98845      2.47077         0.799941     -0.619291     -1.171818
Ti       9.54768      1.92732     15.28159         1.319365     -0.653490     -1.156258
Ti       9.52471     13.51879      2.32369         0.514948     -0.234624     -0.677106
Ti       9.61122     13.42586     15.44125        -0.050799     -0.443681     -0.794944
Ti       9.52526      1.84158      6.69900         0.356253      0.406466     -0.864007
Ti       9.48068     13.42658      6.71911         0.867419      0.020888     -1.888358
Ti       9.54233      1.88887     11.09692        -0.348604     -1.706226     -1.339550
Ti       9.53296     13.39936     10.98479         1.158008     -0.415778      0.438196
Ti       9.56734      5.79019      2.31824        -0.040107      0.504579     -0.357153
Ti       9.57232      5.76507     15.27081         0.481104     -0.529429     -0.277764
Ti       9.50616      5.66704      6.73812         0.918057      0.448938      0.418417
Ti       9.49146      5.67230     11.09170         1.272408      1.127157     -2.203118
Ti       9.70102      9.67830      2.33073        -1.694650     -1.173789     -0.616703
Ti       9.65269      9.55024     15.38432        -0.176651      0.937522     -1.115702
Ti       9.58577      9.57653      6.56916        -0.777035     -0.328249      0.033760
Ti       9.55481      9.53019     11.05062         0.596990      0.991535     -1.516092
O       1.93037      1.86600      0.54884        -0.634533      0.240432      0.420926
O       1.68024      1.88852     13.58745         0.295101      0.056174      0.574219
O       1.88725     13.38187      0.57473        -0.097092      0.035764      0.813344
O       1.76705     13.46252     13.53457         0.337344      0.107551      1.090931
O      13.36927      1.86137      0.52465        -0.097932      0.326301      0.762379
O      13.11291      1.79637     13.52207         0.912059      0.521789      1.509017
O      13.46059     13.47473      0.57874        -0.116884     -0.541373      0.500206
O      13.46627     13.30822     13.58479         0.095784      0.462539      1.411735
O       1.60901      1.80925      4.72251         1.100918      0.134934      0.688118
O       1.92140     13.27763      4.70179         0.021514      0.473704      1.564317
O      13.43281      1.92576      4.84101        -0.001841     -0.150415      0.427522
O      13.24875     13.48009      4.90701         0.056958     -0.222568     -0.394533
O       1.93526      1.88825      9.29091        -0.316373     -0.063419      0.683997
O       1.94504     13.42243      9.37175        -0.335269      0.118396     -0.247202
O      13.26977      1.80953      9.18255         0.415170      0.368364      1.423292
O      13.32362     13.16759      9.23692         0.359936      0.741866      1.078902
O       1.88810      5.74614      0.54598        -0.366395      0.122541      1.229288
O       1.78868      5.74815     13.63236         0.265777      0.111672      0.086976
O      13.24570      5.69211      0.32910         0.358175     -0.058779      1.614172
O      13.41032      5.94904     13.53061        -0.112908     -0.740452      0.510044
O       1.76130      5.58200      4.70541         0.721900      0.906315      1.290148
O      13.37942      5.67898      4.91932        -0.325865      0.247893      0.559019
O       1.89857      5.64573      9.22177         0.267305     -0.265664      0.140056
O      13.56582      5.59618      9.15761        -0.561632      0.406317      0.525155
O       1.83491      9.43565      0.51321         0.349502      0.907401      1.606468
O       1.92833      9.53424     13.52005        -0.052658      0.287974      2.234747
O      13.48444      9.55091      0.61978        -0.094699      0.215630     -0.035070
O      13.39836      9.43783     13.55505         0.364382      0.278914      1.429445
O       1.97736      9.42646      4.91769        -0.115834      0.674381     -0.164062
O      13.36927      9.28385      4.86947         0.053003      0.799008      0.758012
O       1.90081      9.53656      9.23680         0.359420      0.411633     -0.579153
O      13.40906      9.70978      9.20428        -0.029248     -0.501508      0.236937
O       5.88602      1.84232      0.48809        -0.660708      0.058291      0.093799
O       5.59848      2.05311     13.58981         0.608709     -0.579674      1.153492
O       5.51738     13.52149      0.39357         0.530378     -0.221236      0.750996
O       5.79333     13.21072     13.71267        -0.066103      0.604390     -0.023488
O       5.43212      1.90609      4.81794         1.137226     -0.279704      1.068318
O       5.64172     13.47271      4.94057         0.180009     -0.353793      0.308976
O       5.64579      1.65033      9.29060        -0.209783      0.715826      0.011609
O       5.74682     13.37158      9.19790        -0.424245      0.260983      1.285918
O       5.79935      5.66856      0.39887         0.059666      0.683962      1.276193
O       5.86578      5.69982     13.59746        -0.672415     -0.150795      0.259421
O       5.87318      5.76422      4.79342        -0.791930      0.083172      1.051354
O       5.69143      5.63212      9.20080        -0.187719      0.167239      1.350230
O       5.83524      9.52732      0.55492        -0.300749     -0.287739     -0.155811
O       5.75372      9.47226     13.58140        -0.113911      0.610326      0.260230
O       5.73219      9.55835      4.88581        -0.087359      0.114595      0.893336
O       5.76004      9.68462      9.12540        -0.033792     -0.725086      1.139163
O       9.66014      2.11943      0.66801        -0.707189     -0.448213      0.219637
O       9.56568      1.69139     13.46386        -0.163828      0.609898      0.959134
O       9.62152     13.45400      0.49603        -0.516510     -0.085694      0.403804
O       9.54272     13.30401     13.60027        -0.294568      0.404043      1.066461
O       9.43995      1.72819      4.91919        -0.026330      0.543905      0.077102
O       9.41464     13.47196      4.84054         0.155074     -0.295020      1.274572
O       9.54230      1.78429      9.26753         0.085410      0.228189      0.696523
O       9.68761     13.16749      9.21246        -0.887818      0.878576      0.186364
O       9.63865      5.73282      0.52381        -0.303216     -0.082927      0.408477
O       9.54478      5.88798     13.46082        -0.107272     -0.282303     -0.067387
O       9.57139      5.63105      5.01052        -0.242559     -0.060026     -0.963624
O       9.56073      5.79402      9.26536        -0.788863     -0.309551      0.757124
O       9.48124      9.61609      0.49238         0.718166      0.060859      0.901012
O       9.68469      9.56709     13.52846        -0.532852     -0.384206      1.313527
O       9.51481      9.57737      4.73539         0.308152      0.228262      0.874182
O       9.46743      9.70625      9.19370        -0.093305     -0.648606      1.566599
O       3.72823      1.91951      2.81321         0.178251     -0.323109     -0.665851
O       3.77643      2.09253     15.71519         0.734532     -0.804690     -0.097008
O       3.77507     13.39750      2.73183         0.016262     -0.063487     -0.192767
O       3.81249     13.36162     15.67425        -1.155124      0.416529      0.429017
O      15.26249      1.98587      2.64110        -0.503119      0.138195     -0.048689
O      15.25749      1.95434     15.81904         0.077194     -0.082200     -0.307298
O      15.23465     13.31270      2.91833         0.268283     -0.114045     -0.626114
O      15.35849     13.47870     15.83096         0.237987      0.068168     -0.018218
O       3.76009      1.84107      7.00588         0.001392     -0.135213      0.205141
O       3.79967     13.43659      7.04247         0.033121     -0.381913      0.191560
O       0.00760      1.74667      6.97831         0.515328      0.367713      0.538509
O      15.28691     13.35578      6.94102         1.081080      0.277524      0.399656
O       3.78724      1.73654     11.55235        -0.607252      0.721194     -0.164230
O       3.77170     13.38403     11.41147         0.650971      0.304925      0.478500
O      15.17097      1.92257     11.33735         1.613355     -0.004657      0.410968
O      15.21321     13.45482     11.39802         1.258740     -0.064431      0.243848
O       3.84718      5.71754      2.51997        -1.539295      0.111215      0.823722
O       3.79104      5.76413     15.95684         0.378117      0.237339     -1.202809
O      15.18893      5.66031      2.67176         0.869576      0.302569     -0.356011
O      15.30896      5.64313     15.83889         0.013232      0.272096     -0.163126
O       3.79746      5.61146      7.02454        -0.157874      0.697608     -0.365221
O      15.33581      5.70981      6.95050         0.514254     -0.301135      0.141877
O       3.78777      5.75453     11.42379         0.523284     -0.767658      0.306704
O      15.30540      5.72739     11.34878         0.939508      0.142363      0.424615
O       3.80998      9.56763      2.77929        -0.241275      0.319012     -0.142380
O       3.81317      9.56451     15.84922        -0.092028      0.091934     -0.349269
O      15.27192      9.53494      2.77978         1.428364      0.145440      0.165800
O      15.34510      9.57365     15.88681         0.714226     -0.084359     -0.378679
O       3.82919      9.57074      7.09891        -0.344211      0.084774     -0.005313
O      15.33408      9.59651      7.10248        -0.030734      0.043699     -0.381742
O       3.78659      9.71260     11.46815         0.736257     -0.234861     -0.076570
O      15.35542      9.45580     11.34888        -0.395476      0.611024      0.154941
O       7.59007      1.93979      2.68995        -0.831864     -0.143281      0.305673
O       7.80308      1.89005     15.68797        -2.333420      0.089070      0.407551
O       7.47778     13.43390      2.60914         1.275623      0.039255      0.164925
O       7.64148     13.48882     15.84105        -0.033371     -0.228696      0.035177
O       7.61561      1.79720      7.17181        -0.336235      1.062967     -0.528689
O       7.61708     13.47005      7.00008         0.517635     -0.223331      0.576583
O       7.58221      1.95996     11.40708        -0.051785     -0.421594      0.180231
O       7.57161     13.37657     11.45763         0.696450     -0.493563     -0.039497
O       7.54575      5.80794      2.62148         1.156824     -0.212471      0.258209
O       7.74298      5.80673     15.77952        -0.406578     -0.629887     -0.181852
O       7.59187      5.56586      7.13905        -0.184601      0.674752     -0.348352
O       7.58278      5.66563     11.30712         0.392640      0.071648      0.516968
O       7.67305      9.56723      2.75566        -0.418554     -0.261510      0.049192
O       7.64515      9.64556     15.74806         0.413272     -0.379226     -0.286832
O       7.69276      9.55434      6.97084        -0.576118      0.172024      0.256731
O       7.53000      9.56926     11.42358         1.635490     -0.060769      0.067152
O      11.37454      1.77746      2.81378         1.159525      0.852891     -0.244217
O      11.41831      1.79511     15.93660         0.376333      0.935275     -0.798826
O      11.36772     13.56339      2.65178         1.160032     -0.671825      0.439577
O      11.56055     13.40423     15.72699        -0.194005     -0.616595      0.318796
O      11.49177      1.82537      6.96552         0.392532      0.084512      0.287451
O      11.43461     13.38433      7.09108         0.138165      0.158644     -0.155546
O      11.38057      1.76288     11.45651         0.831926      0.490313     -0.134534
O      11.46689     13.48049     11.51627        -0.122814     -0.610987     -0.208934
O      11.46449      5.64247      2.69065        -0.375347      0.419677      0.221381
O      11.46452      5.84089     15.68737        -0.477676      0.143020     -0.108196
O      11.41644      5.83368      7.14531         1.164563     -0.498418     -0.350376
O      11.44712      5.77460     11.22334        -0.362025     -0.101220      0.857583
O      11.48674      9.53114      2.73079        -0.096064      0.068723      0.093897
O      11.54517      9.58359     15.74767        -0.228312      0.075729      0.283158
O      11.40834      9.46802      7.03412         1.068172     -0.074356     -0.270097
O      11.48519      9.42552     11.28481        -0.562320      0.255902      0.273655
O       1.93131      3.83505      2.71619        -0.475582      0.204371     -0.158969
O       1.91413      3.87645     15.71133        -0.456833     -0.604492      0.406048
O       1.72615     15.33921      2.62548         0.090180     -0.418218      0.272085
O       1.94429      0.02690     15.68574        -0.186070     -0.151957      0.421044
O      13.22737      3.82999      2.64336         0.472634     -0.715815     -0.042845
O      13.22843      3.85194     15.57595         0.491000     -1.053063      0.488158
O      13.46093     15.33889      2.75811        -0.208752      0.282418     -0.024427
O      13.32346      0.04349     15.73174         0.815423     -0.883532     -0.013902
O       1.83624      3.71923      6.74735         0.178688      0.209820      0.852512
O       1.94917     15.22831      6.88447        -0.446914      0.968631      0.529205
O      13.39189      3.76933      7.02046         0.094190      0.363180      0.126323
O      13.47498     15.34366      7.06694        -0.384384     -0.417129      0.137526
O       1.81569      3.81195     11.52550         0.418340     -0.117046     -0.351604
O       1.77535      0.04571     11.38295        -0.215436     -1.243279      0.557126
O      13.36895      3.87337     11.30576        -0.600610     -1.403195      0.805212
O      13.34547     15.31500     11.37313         0.175666      0.212238      0.131816
O       1.89112      7.72008      2.77761        -0.197708     -1.524139     -0.107444
O       1.92303      7.73163     15.88312        -0.344262     -0.652765     -0.635768
O      13.33321      7.58387      2.68751        -0.019096     -0.201943      0.119110
O      13.42546      7.59523     15.70404         0.223769      1.680924      0.559310
O       1.86867      7.61178      6.97632         0.534474     -0.434902      0.235396
O      13.48262      7.64110      7.13585        -0.543371     -0.112340     -0.111951
O       2.04858      7.71560     11.34429        -0.347029     -1.027384      0.103336
O      13.41799      7.62042     11.28894        -0.114635      0.506547      0.284013
O       1.83461     11.45937      2.80124         0.000464     -0.683606     -0.481391
O       1.90025     11.54069     15.79429        -0.251014     -0.438173      0.077723
O      13.19655     11.44531      2.70914         0.617620      0.664758      0.334396
O      13.54303     11.45257     15.72163        -0.358997      0.590493      0.557988
O       1.88213     11.51248      6.99979         0.434146     -0.168913      0.064861
O      13.35215     11.46513      6.85919        -0.008973     -0.553220      0.045747
O       1.76547     11.54558     11.50048         0.296158      0.079110     -0.289923
O      13.40103     11.41919     11.48127        -0.471661      0.577691     -0.070627
O       5.64446      3.80806      2.64014         0.300650      0.219369      0.119626
O       5.78308      3.89086     15.87132         0.261050     -1.106021     -0.505437
O       5.64249     15.34021      2.70510        -0.105299      0.082323     -0.353640
O       5.61275      0.00734     15.71219         0.263028      0.506324     -0.167464
O       5.65411      3.81119      6.88467         0.199178     -0.663769      0.547478
O       5.81648      0.00504      7.03746        -0.977458     -0.273773      0.078597
O       5.65549      3.77093     11.42833        -0.269939      0.478467      0.007395
O       5.72689     15.29153     11.55382         0.041725     -0.353875      0.113763
O       5.52167      7.68174      2.65616         0.723876     -0.537840      0.168468
O       5.83215      7.65068     15.64308        -0.422653      0.450057      0.617773
O       5.74804      7.66526      7.07559        -0.187952     -1.119733     -0.088770
O       5.56806      7.62829     11.43937         0.720500      0.010582     -0.553607
O       5.74042     11.44474      2.43011        -0.540992      1.120356      0.990684
O       5.63032     11.47553     15.83439         0.541358     -0.086344      0.143710
O       5.80866     11.49411      7.04896        -0.549227      0.332679      0.021705
O       5.71880     11.42357     11.34369        -0.081456      1.150672      0.438310
O       9.45975      3.87135      2.78769         0.212862      0.178565      0.188174
O       9.74628      3.83186     15.48470        -0.537981     -0.078777      0.303842
O       9.45325     15.34252      2.67623        -0.783914      0.324695      0.009988
O       9.61409     15.27980     15.75338        -0.204876      0.546875      0.060388
O       9.64910      3.73577      7.17698        -0.606338      0.349214     -0.136571
O       9.61093     15.34607      7.10962        -0.389176     -0.893522      0.294843
O       9.61796      3.72861     11.38475        -0.559082      1.619895      0.213599
O       9.47296     15.22299     11.36759        -0.368203      0.561308      0.202750
O       9.60131      7.63435      2.71085        -0.165038      0.020043      0.012023
O       9.55327      7.64545     15.80779         0.032263      0.969138     -0.381425
O       9.42522      7.63279      6.92075        -0.030463     -0.157631      0.612239
O       9.44858      7.69775     11.28201        -0.360863     -1.032221      0.532478
O       9.51778     11.54430      2.69099         0.226203     -0.063387      0.135943
O       9.51639     11.45625     15.75245         0.520455      0.267234      0.204483
O       9.56359     11.46687      7.01571        -0.260026      0.321878     -0.304002
O       9.73544     11.47520     11.40662        -0.996023     -0.106703      0.200916
