  # total energy = -7881.21290651 
CRSYTAL
PRIMVEC
    15.3600000000000000    0.0000000000000000    0.0000000000000000
     0.0000000000000000   15.3600000000000000    0.0000000000000000
     0.0000000000000000    0.0000000000000000    17.440000000000000
PRESSURE
2.36368 2.75256 7.07609 -0.027476 0.087688 0.042118
PRIMCOORD
320 1
Pb       3.85807      3.75652      4.27846        -0.261147      0.001568      0.837339
Pb       3.74172      3.78841     17.41948         0.022353      0.175418     -0.259199
Pb       3.79176     15.27629      4.30900         0.173477      0.832331      0.576813
Pb       3.71898     15.25933     17.31717         0.606911      0.310258      0.652301
Pb       0.03942      3.75393      4.24761         0.182697      0.297971      0.172715
Pb      15.34744      3.82335     17.34737         0.166084     -0.184022      0.665184
Pb       0.00795     15.35877      4.29697         0.343353     -0.074010      0.025585
Pb       0.04485     15.31803     17.36176        -0.362178      0.614573      0.314323
Pb       3.78439      3.77491      8.73297         0.376023      0.693229     -0.058044
Pb       3.84059      0.03447      8.50236         0.095129     -0.587028      1.738458
Pb       0.07048      3.89358      8.71622        -1.072827      0.026107      0.237815
Pb      15.25958     15.32363      8.70404         0.188225      0.160529      0.066613
Pb       3.80746      3.83242     13.04798        -0.122158     -0.530847     -0.466910
Pb       3.81607      0.09379     12.97299         0.191272     -0.221838      0.256982
Pb       0.03337      3.82768     13.02805         0.007852     -0.066249      0.152168
Pb      15.31311     15.28315     13.07319         0.337503      0.030984     -0.161017
Pb       3.80846      7.64828      4.34794        -0.093085      0.063824     -0.164213
Pb       3.86111      7.59241     17.31885        -0.509288      0.467863      0.473141
Pb      15.30520      7.76633      4.29404         0.452516     -0.578596     -0.065193
Pb      15.28175      7.55158     17.42358         0.358110      0.024465     -0.280474
Pb       3.73454      7.73648      8.62074         0.504020     -0.158614     -0.118786
Pb      15.35746      7.70356      8.63443        -0.073585     -0.321164      0.385281
Pb       3.85251      7.61868     12.94569        -0.272497      0.575884      0.430957
Pb      15.28758      7.59040     13.03597        -0.033977      0.310689      0.533873
Pb       3.91981     11.52055      4.34836        -0.820184     -0.417133      0.006693
Pb       3.72095     11.63146     17.36953         0.732564     -0.885063      0.462520
Pb      15.23218     11.44033      4.40534         0.225136      0.665802     -0.656443
Pb      15.31560     11.54578     17.36834        -0.003620     -0.757115      0.053220
Pb       3.90480     11.47245      8.64675        -0.573256     -0.080420      0.412999
Pb      15.29407     11.54768      8.71006         0.022558      0.347913     -0.316225
Pb       3.80384     11.45548     13.02698        -0.230460      0.346977     -0.502251
Pb       0.04016     11.51960     12.97122        -0.047373      0.076718      0.402959
Pb       7.66500      3.78685      4.26570        -0.266753     -0.144000      0.132757
Pb       7.55417      3.76254      0.04633         0.583313      0.275710     -0.106641
Pb       7.67767     15.23331      4.39248        -0.302512      0.458523     -0.327658
Pb       7.72894     15.35334     17.41955        -0.415140     -0.262898     -0.297917
Pb       7.66031      3.87620      8.60147        -0.075794     -0.072587      0.071777
Pb       7.63996      0.05435      8.70558         0.029399     -0.038513      0.103694
Pb       7.73166      3.87531     12.93411        -0.173647     -1.015546      0.686710
Pb       7.59678      0.02646     13.00029         0.260353      0.570659     -0.140409
Pb       7.75946      7.66412      4.35632        -0.709362     -0.010263     -0.145624
Pb       7.56191      7.75384     17.36643        -0.001535     -0.484960      0.064918
Pb       7.76442      7.57460      8.67293        -0.514533      0.399900      0.379163
Pb       7.72067      7.72706     13.03699        -0.238987     -0.192938      0.098071
Pb       7.65544     11.50594      4.32371         0.357563     -0.246889      0.244847
Pb       7.66176     11.43763     17.38847        -0.704178      0.339373      0.170021
Pb       7.62769     11.59367      8.62558         0.488862     -0.306319      0.808339
Pb       7.60150     11.45456     12.94566         0.152616      0.392317     -0.011957
Pb      11.43290      3.86356      4.24970         0.639209     -0.362919      0.469711
Pb      11.57123      3.82670     17.41971         0.034461      0.004467      0.506889
Pb      11.55186     15.24205      4.40869         0.005246      0.735379     -0.364128
Pb      11.42699     15.32203      0.09774         0.140745      0.187242     -0.732111
Pb      11.41590      3.77051      8.64487         0.823776      0.799760     -0.302842
Pb      11.50290      0.08422      8.70201         0.168817     -0.288400     -0.139714
Pb      11.56540      3.77289     13.01213        -0.078621      0.038425      0.581580
Pb      11.56353      0.00552     13.01920        -0.398667     -0.024975     -0.123940
Pb      11.47586      7.60407      4.30946         0.114764      0.494128      0.066705
Pb      11.52010      7.72391     17.37368        -0.269836     -0.880101      0.194963
Pb      11.53218      7.71359      8.64455        -0.271115     -0.850614      0.417187
Pb      11.49856      7.58895     13.11750         0.427624     -0.021441      0.247510
Pb      11.51606     11.55036      4.20584         0.083909     -0.591296      1.206303
Pb      11.44935     11.46229     17.39377         0.113711      0.243961     -0.059713
Pb      11.58065     11.50260      8.55044        -0.337583      0.370619      0.692257
Pb      11.56709     11.51534     13.06717        -0.348462      0.153798     -0.116621
Ti       1.99472      1.86604      2.30727        -0.469216      0.271416      1.773041
Ti       1.91763      1.89274     15.39403        -0.323622      0.471041      1.642006
Ti       1.95020     13.38840      2.32717        -1.050352      0.518971      3.109561
Ti       1.88359     13.39207     15.40564        -0.163954     -0.090417     -1.011057
Ti      13.46455      1.92320      2.38440         0.060163      0.304945      0.954289
Ti      13.45785      1.83449     15.35933         0.454282      1.207322      1.915778
Ti      13.45523     13.47907      2.29598         0.559474     -0.011172      1.982031
Ti      13.34400     13.45633     15.48309         0.329327     -0.346602      1.353350
Ti       1.89283      1.97782      6.82431        -0.309680     -0.610960     -1.152380
Ti       1.88426     13.47116      6.73336        -0.587617      0.146590      1.309283
Ti      13.46739      1.92564      6.63904        -1.275722      0.365644      2.391752
Ti      13.36595     13.46799      6.69667         0.593880      0.074861      0.900884
Ti       1.89266      1.81207     10.99538         0.318044      1.005903      2.192069
Ti       1.92890     13.43340     10.98649        -0.355493      0.292262     -0.025145
Ti      13.54563      1.89343     11.01582        -1.322400      0.341213      0.183205
Ti      13.39297     13.40883     11.03594         0.102205      0.466419      0.684366
Ti       1.91699      5.72656      2.35747        -0.177067     -0.008310      1.448188
Ti       1.98690      5.75843     15.34637        -1.325107     -0.417405      1.330229
Ti      13.41139      5.81621      2.44413         0.608149     -1.524341      0.141258
Ti      13.38096      5.68545     15.45554         0.416322     -0.734719      1.011371
Ti       1.87308      5.80859      6.77723         1.093573     -0.147636      1.315365
Ti      13.45137      5.74865      6.60238        -1.101863     -1.262362      1.432217
Ti       1.93464      5.77535     11.06990        -1.589558     -0.655347      0.308866
Ti      13.44724      5.72292     11.09667        -0.744347     -0.199485     -0.480650
Ti       1.90939      9.58440      2.29496        -0.375973     -0.000440      1.543097
Ti       1.86393      9.55576     15.33257        -0.625868     -0.475692      1.352384
Ti      13.38415      9.66906      2.27648        -0.391390     -0.731270      3.289321
Ti      13.36566      9.57285     15.44991         0.819128     -0.096775      0.551069
Ti       1.83733      9.69474      6.60469         1.252899     -1.250627      1.646402
Ti      13.42854      9.53948      6.70392        -0.502259      0.605469      0.534584
Ti       1.86040      9.54526     11.01194         0.217798      0.667365      2.977127
Ti      13.43826      9.58323     11.09484        -0.843689     -0.408825      0.451404
Ti       5.77505      1.91394      2.30813        -0.172569     -0.880447      1.500758
Ti       5.78037      1.86496     15.53520        -0.228268     -0.437002     -1.850715
Ti       5.70403     13.40288      2.41250         0.843324      0.261873     -1.095859
Ti       5.82177     13.39335     15.34938        -0.681273      0.437296      3.535558
Ti       5.79071      1.91232      6.67695        -0.456348      0.624897      0.014468
Ti       5.71596     13.38506      6.71382         0.149635      0.996914      2.264949
Ti       5.74898      2.00480     10.93087         0.139957     -0.924145      2.107804
Ti       5.68300     13.47570     11.03458         0.186940     -0.482609      1.403963
Ti       5.67960      5.75215      2.33301         0.519285      0.437650      3.061963
Ti       5.74413      5.66261     15.31914        -0.310255      0.660816      1.793481
Ti       5.71212      5.74791      6.64247        -0.588703      0.222786      1.749031
Ti       5.74839      5.77898     11.05484        -0.063888     -0.400665      1.385838
Ti       5.74318      9.60056      2.39406        -1.334616     -0.544261      0.168776
Ti       5.62216      9.61250     15.39288         0.152091     -0.480540      1.615503
Ti       5.78533      9.55670      6.65333        -0.683287     -0.686827      2.482135
Ti       5.72491      9.53887     11.01163        -0.691305      1.239563      1.131035
Ti       9.62878      1.79332      2.30021         0.319848      0.770575      1.684191
Ti       9.65699      1.99215     15.50664        -0.285512     -0.980943      0.605325
Ti       9.59175     13.38350      2.37641        -0.668544     -0.150480      1.715490
Ti       9.57900     13.38632     15.34200         0.647964      0.754126     -0.093281
Ti       9.58747      1.92612      6.60311         0.473326      0.400087     -0.000331
Ti       9.55384     13.49348      6.73755         0.572815     -0.687878      0.908829
Ti       9.67159      1.87645     10.97375        -0.962679     -0.079315      3.371046
Ti       9.50420     13.46090     11.04665         1.136791      0.176335      1.378585
Ti       9.52750      5.71170      2.32009         0.540672     -0.001852     -1.750506
Ti       9.48084      5.74213     15.52834         0.929275     -0.689488      1.894417
Ti       9.52458      5.78061      6.67102         1.567244     -0.201209      2.961410
Ti       9.56642      5.73525     11.14184         1.811182     -0.563658     -1.488097
Ti       9.53199      9.54858      2.26200         0.594948     -0.190917      3.012991
Ti       9.53798      9.56661     15.39449         0.047091     -0.420951      0.755707
Ti       9.51893      9.61383      6.78697         0.799497      0.159270      1.225935
Ti       9.60431      9.58341     11.09623         0.240209      0.374756      0.856549
O       2.00524      1.72409      0.62480        -0.045454      0.399767     -2.399973
O       1.87742      1.90758     13.71165         0.172686     -0.038777     -2.214373
O       1.96907     13.41962      0.65300        -0.097279     -0.170787     -3.164685
O       1.94126     13.38969     13.66151        -0.249788     -0.111606      0.045084
O      13.66899      1.91235      0.71328        -0.485885     -0.357224     -1.759284
O      13.44825      1.92332     13.64853         0.160384     -0.181310     -1.254850
O      13.41395     13.43211      0.60572        -0.083035      0.100049     -1.653701
O      13.26987     13.42603     13.79318         0.106670      0.134145     -2.269353
O       1.93067      2.00491      5.06737        -0.039363     -0.205597      0.046413
O       1.84651     13.47755      5.02096         0.125046      0.041109     -0.636974
O      13.34307      1.85246      4.94514         0.267813      0.034579     -1.662028
O      13.50134     13.36300      4.99345        -0.103413      0.410111     -1.819290
O       1.96209      1.85332      9.31456        -0.374021      0.187231     -2.106443
O       1.95831     13.57649      9.23714        -0.317138     -0.591826     -0.052696
O      13.44695      1.80883      9.25812        -0.089357      0.313688      0.615826
O      13.42239     13.43176      9.32681         0.168367      0.012427     -1.363947
O       1.85674      5.67181      0.66586         0.442295      0.327352     -1.787992
O       1.99586      5.67789     13.62863         0.031162      0.250230     -1.508772
O      13.44560      5.74056      0.71788         0.035987      0.072093     -1.554342
O      13.40514      5.62593     13.75103         0.084569     -0.027864     -1.135527
O       1.89251      5.74155      5.11241         0.092786     -0.114866     -2.505107
O      13.43479      5.74933      4.87510         0.099091      0.082512     -0.738825
O       1.80319      5.86869      9.34515         0.036352     -0.064452     -1.028890
O      13.48143      5.69116      9.34754        -0.097687      0.395175      0.071627
O       1.75425      9.52627      0.60038         0.454819      0.147331     -0.744841
O       1.79951      9.56133     13.61507         0.273520      0.238862     -0.830731
O      13.27393      9.58485      0.63117         0.072932     -0.096690     -3.902088
O      13.38384      9.50111     13.75452         0.023146      0.414402     -1.433837
O       1.84382      9.43220      4.92364        -0.222155      0.771386     -1.594122
O      13.50026      9.68515      4.99313        -0.219561     -0.303658     -0.738781
O       1.94655      9.48537      9.34885        -0.470764      0.249652     -2.767069
O      13.40771      9.66679      9.34959         0.229308     -0.292973     -0.626513
O       5.84954      1.82724      0.59070        -0.486435      0.263661     -1.354327
O       5.71910      1.85558     13.71563         0.254475     -0.134289      1.127827
O       5.71749     13.23063      0.67574        -0.051111      0.553879     -0.373883
O       5.62522     13.49893     13.70696         0.151463     -0.008351     -2.810458
O       5.74916      1.90324      4.92739         0.256727     -0.007160      0.277853
O       5.74670     13.39332      5.03290         0.039619     -0.232297     -2.248838
O       5.88123      1.95775      9.23222        -0.239006      0.272948     -1.370420
O       5.75834     13.42745      9.35429         0.166552     -0.087433     -2.345308
O       5.58692      5.64281      0.67155         0.151383      0.158329     -2.662924
O       5.80655      5.77893     13.61315        -0.232494     -0.135139     -1.392388
O       5.76460      5.70662      4.95946        -0.136761      0.172859     -1.981675
O       5.82998      5.78400      9.39002        -0.110438     -0.162150     -1.953457
O       5.68653      9.69444      0.67993         0.186744     -0.446394     -1.537223
O       5.68810      9.47478     13.71466         0.107586      0.336575     -2.300258
O       5.79907      9.56524      4.97103         0.034768      0.391686     -2.037404
O       5.63908      9.59939      9.32764         0.257693     -0.102958     -1.744457
O       9.68082      1.81485      0.57253        -0.463586     -0.343670     -0.824896
O       9.51481      1.99861     13.81111         0.060292     -0.049393     -1.230540
O       9.58244     13.30273      0.69417        -0.127680      0.355750     -1.725870
O       9.75318     13.34201     13.58976        -0.342909      0.156018      0.609561
O       9.66473      1.90577      4.85080        -0.301086     -0.074965     -0.168078
O       9.62796     13.21683      5.04965        -0.409112      0.663660     -1.614682
O       9.58338      1.85766      9.30090         0.051815      0.179473     -2.445028
O       9.56416     13.61585      9.35160        -0.234885     -0.323904     -2.096389
O       9.53835      5.72956      0.52951        -0.185238      0.176189      1.491137
O       9.64395      5.66905     13.83795        -0.566328      0.122752     -1.876084
O       9.64154      5.78634      5.02267        -0.178425      0.219717     -3.722579
O       9.74027      5.74079      9.36476        -0.606412      0.065192      0.345356
O       9.44637      9.52584      0.58355         0.148357      0.117653     -1.770049
O       9.51889      9.59829     13.67550        -0.184348     -0.115172     -1.160981
O       9.43699      9.53753      5.10984         0.185724      0.016654     -2.434724
O       9.55290      9.49909      9.38499         0.245564      0.122574     -0.403434
O       3.91669      1.76269      2.83130        -0.208531      0.631765     -0.411266
O       3.83412      1.82113     15.83685        -0.220575      0.531130      0.214143
O       3.84450     13.43581      2.87982        -0.139426      0.056699     -0.199150
O       3.73965     13.35638     15.82113         0.726633      0.037597     -0.008329
O       0.08742      1.90370      2.75992        -0.415021     -0.008673      0.425060
O       0.02256      1.87282     15.91865         0.368195     -0.292946     -0.428289
O       0.01989     13.40471      2.73002        -0.428313      0.388938     -0.031831
O      15.30295     13.29039     15.84358         0.178040      0.636874     -0.112655
O       3.84331      1.94352      7.26876         0.559127      0.462092     -0.884052
O       3.83265     13.39441      7.13535        -0.153357      0.148762     -0.351717
O      15.25502      1.99125      7.15734         1.752471     -0.497607     -0.141324
O      15.32440     13.53589      7.20186         0.626055     -0.399200     -0.197038
O       3.79630      2.02888     11.39643         0.738209     -0.802480      0.207972
O       3.76320     13.41880     11.46025         0.716061     -0.093428      0.185946
O      15.35689      1.87974     11.48473         0.500190      0.238118     -0.058449
O      15.34283     13.51879     11.46728         0.047073     -0.500786      0.114286
O       3.84200      5.70020      2.80776        -0.614292      0.630910      0.125401
O       3.83966      5.70484     15.92063         0.011823     -0.568398     -0.488152
O       0.09670      5.75353      2.82292        -1.052757     -0.555051      0.216715
O       0.03378      5.66010     15.86553        -0.685645      0.857743     -0.198841
O       3.84867      5.75044      7.23383        -0.472473      0.065035     -0.094869
O      15.35036      5.78815      7.19655        -0.449645      0.035189     -0.260085
O       3.73683      5.68888     11.35066         2.217625      0.636593      0.565775
O      15.33488      5.67991     11.53152         0.228348      0.516775      0.077337
O       3.80083      9.58735      2.82671        -0.477082      0.024097     -0.057412
O       3.74167      9.56161     15.77637         0.127060      0.359707      0.104495
O      15.19041      9.66499      2.67418         2.304923     -0.037560      0.616676
O      15.24691      9.51189     15.86325         0.378345      0.263275      0.082444
O       3.79041      9.70764      7.01484         0.561010     -0.291272      0.139603
O      15.32749      9.65804      7.12883        -0.380661     -0.600961      0.050717
O       3.74448      9.54693     11.43021         0.802177      0.041341      0.426780
O      15.25967      9.47275     11.62023         0.645224      0.451593     -0.775811
O       7.61387      1.96503      2.70536         1.633112     -0.065620      0.201543
O       7.69471      1.87104     15.94610        -0.378575     -0.365103      0.086573
O       7.62110     13.32863      2.88049         1.208794     -0.058038     -0.111446
O       7.73352     13.44001     15.78385        -0.840770     -0.155614     -0.172896
O       7.67426      2.01213      7.13414         0.243334     -0.580262     -0.359103
O       7.64213     13.43761      7.07527         0.302805      0.209628      0.325033
O       7.61962      1.89575     11.38162         0.324186     -0.047654      0.339586
O       7.67623     13.50185     11.46688        -1.486350     -0.319698      0.321232
O       7.66512      5.73808      2.81402         0.294570     -0.242606     -0.348306
O       7.54760      5.70698     15.90985         0.165398      0.510613     -0.262022
O       7.62224      5.81215      7.06116         0.646739     -0.114682      0.316365
O       7.69766      5.81444     11.36323        -0.136825     -0.214411      0.682535
O       7.57699      9.52133      2.75510         2.208023      0.524353      0.111928
O       7.57986      9.52090     15.86940         0.032401     -0.117452     -0.268365
O       7.67659      9.51031      7.19474        -1.025146      0.636456      0.144097
O       7.62619      9.57372     11.46572         0.682445     -0.288254      0.250196
O      11.50869      1.72075      2.63976        -0.084902      0.379794      0.294307
O      11.62425      1.95669     15.88096        -1.243140     -0.392273     -0.031645
O      11.47842     13.42721      2.78010         0.680401      0.407344     -0.158827
O      11.46869     13.43463     16.02806        -0.550322     -0.196050     -0.420741
O      11.47516      1.89914      7.15415         0.319999      0.440730     -0.248376
O      11.46253     13.44310      7.03369         0.457213     -0.028315      0.487361
O      11.50848      1.92506     11.51862         0.464015     -0.562853     -0.662293
O      11.51609     13.48689     11.37520         0.210028     -0.311898      0.555309
O      11.50411      5.82091      2.79632        -0.531932     -0.183924      0.032355
O      11.44578      5.59432     15.94341         0.612008      0.480716     -0.298996
O      11.50843      5.77523      7.03731         0.038677     -0.209658      0.226534
O      11.53927      5.64141     11.64233        -0.498362      0.347724     -0.368397
O      11.51205      9.54873      2.76922        -0.704980     -0.339990     -0.095747
O      11.45380      9.57703     15.80277        -0.605176     -0.182926      0.382273
O      11.49822      9.62593      7.19454         0.640139     -0.019041     -0.444453
O      11.49526      9.61192     11.59602        -0.153441      0.394682     -0.454664
O       1.99334      3.76878      2.72615         0.143931      0.319649      0.122154
O       1.86505      3.87204     15.72395         0.799584     -1.275233      0.531476
O       2.00275      0.04024      2.77943        -0.514284     -1.590123      0.339954
O       1.86964     15.32335     15.75611        -0.012944     -0.656802      0.226893
O      13.36944      3.82175      2.77077         0.200304     -0.073273      0.369521
O      13.55436      3.70962     15.94377        -0.788408      1.029317     -0.406167
O      13.49602      0.03442      2.80407        -0.240286     -1.547624      0.087866
O      13.47062      0.00701     15.81445        -0.125117     -0.874585      0.358616
O       1.97313      3.83506      7.21044        -0.490982      0.614193      0.416606
O       1.99083      0.09071      7.16772        -0.705647     -1.096071     -0.509423
O      13.44153      3.83368      7.13497        -0.166479      0.432311     -0.343114
O      13.40334     15.33954      7.13826        -0.099731      0.574554     -0.181697
O       1.96668      3.78441     11.43539        -0.817809      0.440940      0.140328
O       1.90400     15.32284     11.49338         0.033892      0.413420      0.119902
O      13.41154      3.82410     11.44426         0.451709     -0.892114      0.122276
O      13.52967      0.02381     11.50853        -0.803034     -0.525794      0.016503
O       1.82951      7.68625      2.77053         0.458626      0.280382     -0.129803
O       1.86432      7.61640     15.72676         0.254892      0.496773      0.377583
O      13.54265      7.60786      2.73372        -0.594084      1.965950      0.292054
O      13.29889      7.55187     15.72415         0.221348      0.804446      0.874297
O       1.97171      7.71711      7.07702        -0.645369      0.369822      0.409236
O      13.30270      7.63408      7.05164         1.092582      0.919944     -0.071531
O       1.86306      7.72547     11.47419        -0.057556     -1.580524      0.222062
O      13.28015      7.64591     11.55481         0.725182      0.010415     -0.280800
O       1.92758     11.59259      2.78863         0.154750     -1.659019     -0.031873
O       1.86783     11.41953     15.84862        -0.353718      0.667620     -0.100615
O      13.37355     11.55727      2.73233         0.095291      0.284756     -0.110427
O      13.25112     11.51912     15.80520         0.518438     -0.468582      0.427927
O       1.87289     11.49543      7.08349        -0.305197      1.312604      0.071763
O      13.52539     11.60758      7.05741        -0.435981     -1.457207      0.751367
O       1.87469     11.54389     11.45419        -0.338376     -0.831430     -0.164103
O      13.56495     11.50231     11.42313        -0.697428      0.132077      0.350575
O       5.68338      3.83643      2.80113         0.526468     -0.480416     -0.454759
O       5.79070      3.76782     15.85966        -0.617315      0.290048     -0.053648
O       5.93860     15.29445      2.82691        -0.771672      0.274146     -0.183048
O       5.63988     15.26914     16.00312         1.137198     -0.084335     -0.729918
O       5.73616      3.88543      7.01528         0.252235     -1.016943      0.682394
O       5.81059      0.02482      7.11201        -0.155145     -0.415585     -0.291082
O       5.78494      3.83559     11.51622        -0.232879      0.645787     -0.413114
O       5.69587     15.32191     11.37072        -0.065332      1.293495      0.411480
O       5.71869      7.68272      2.81454        -0.025723     -0.594287     -0.209470
O       5.50926      7.64590     15.73947         1.286151     -0.337155      0.267745
O       5.69929      7.68866      7.02563         0.024342      0.381578      0.268831
O       5.80615      7.69278     11.46907        -0.590839     -0.799793      0.228955
O       5.67190     11.50398      2.73254         0.284498     -0.268791      1.171753
O       5.75730     11.51954     15.80180        -0.143957     -0.092431     -0.190745
O       5.76376     11.53603      7.22774         0.248197     -0.607350     -0.682618
O       5.67125     11.48924     11.40010         0.315759      0.011490      0.635279
O       9.73734      3.78941      2.66950        -0.822697      0.115259      0.014123
O       9.50284      3.81754     16.01273        -0.023537     -0.048476     -0.198251
O       9.60954     15.28909      2.83386        -0.794855     -0.272997     -0.253686
O       9.60402     15.30105     15.77632         0.247288      0.074451      0.465469
O       9.57828      3.84069      6.97400        -0.124453      0.253618      0.625704
O       9.70783      0.08582      7.05697        -1.153428     -1.225828     -0.055132
O       9.59473      3.75648     11.50458        -0.250748      0.732901     -0.240607
O       9.53376      0.00751     11.50196         0.369285      0.464639      0.248886
O       9.61616      7.63506      2.73353        -0.421014      0.527999      0.203950
O       9.57042      7.63884     15.94509        -0.373181      0.335597     -0.441160
O       9.58897      7.69649      7.19148         0.127821     -0.507785     -0.052192
O       9.73725      7.58796     11.60006        -1.029953      1.022694     -0.328706
O       9.71803     11.43058      2.78450        -1.327030      0.033544     -0.426368
O       9.46633     11.39861     15.81826         0.642269      1.233853      0.073502
O       9.59161     11.51542      7.18045        -0.403330      0.382450      0.303226
O       9.43972     11.57277     11.50897         0.800595     -1.349163     -0.403513
