  # total energy = -7881.47516553 
CRSYTAL
PRIMVEC
    15.3600000000000000    0.0000000000000000    0.0000000000000000
     0.0000000000000000   15.3600000000000000    0.0000000000000000
     0.0000000000000000    0.0000000000000000    17.440000000000000
PRESSURE
2.13373 1.99115 2.87721 -0.374512 -0.432531 -0.080454
PRIMCOORD
320 1
Pb       3.85584      3.82738      4.38407        -0.016079     -0.112997     -0.483261
Pb       3.90933      3.83162     17.40166        -0.735270     -0.478346      0.335528
Pb       3.80526      0.02415      4.29447        -0.181144      0.022817      0.294404
Pb       3.66650     15.35406     17.36792         1.035350      0.065166      0.602254
Pb       0.03741      3.71640      4.34920         0.213310      0.636159      0.200375
Pb       0.08073      3.98296     17.40151         0.091795     -0.597741      0.055375
Pb       0.07013      0.00473      4.29958        -0.392094     -0.406880      0.516658
Pb      15.24474     15.30471     17.37890        -0.467455      0.441158      0.821080
Pb       3.74943      3.72989      8.74056         0.455018      0.085619      0.082861
Pb       3.89271      0.01646      8.56196         0.061603     -0.227917      0.568543
Pb      15.19457      3.93034      8.63115         0.571363     -0.814212      0.857021
Pb      15.20075      0.00623      8.67838         0.727590     -0.069273      0.425640
Pb       3.70541      3.70153     13.10115         0.347836      0.018535     -0.643649
Pb       3.71207     15.32773     12.95466         0.634862     -0.068666      0.148795
Pb       0.04191      3.79136     13.06007        -0.487285      0.117910     -0.303091
Pb       0.00204     15.31788     13.06306        -0.243111     -0.190778     -0.446936
Pb       3.86448      7.65045      4.33079        -0.410892      0.145426     -0.264994
Pb       3.80148      7.56972     17.35848         0.080641     -0.025584      0.536092
Pb       0.09696      7.82901      4.35925         0.491833     -0.163124     -0.221339
Pb      15.13841      7.68533     17.38324         0.619399      0.149349      0.097102
Pb       3.86201      7.71507      8.65513         0.031345     -0.240416      0.475550
Pb       0.06379      7.59211      8.62575        -0.033061      0.259554      0.211858
Pb       3.79870      7.56111     12.96695         0.208535      0.153142     -0.182858
Pb       0.00786      7.62619     13.11114         0.006663      0.115124     -0.438186
Pb       3.80676     11.59939      4.21391        -0.455887     -0.326294      0.341399
Pb       3.98511     11.60048     17.39708        -0.049460     -0.002526      0.337467
Pb       0.01400     11.56682      4.37947         0.147130     -0.249125     -0.585411
Pb      15.29024     11.59527     17.26759        -0.394413     -0.633075      1.153728
Pb       3.87939     11.54382      8.60462        -0.384945     -0.288156      0.044179
Pb      15.25246     11.41826      8.68434         0.337125     -0.173250     -0.260303
Pb       3.89567     11.47882     13.16226        -0.080396      0.150588     -0.400724
Pb       0.14327     11.59211     13.06449        -0.641720     -0.589911      0.408174
Pb       7.72983      3.73830      4.37898        -0.280785      0.355386     -0.513406
Pb       7.67159      3.89674     17.38166        -0.198050     -0.222623      0.919377
Pb       7.72327      0.03704      4.36180        -0.286321     -0.087100      0.182384
Pb       7.59384      0.09067     17.30123         0.101244     -0.546387      0.478461
Pb       7.65104      3.79615      8.77741        -0.492151     -0.164917     -0.440360
Pb       7.65522     15.19294      8.69918        -0.553495      0.803720     -0.171597
Pb       7.84821      3.89822     13.10661        -0.421658     -0.346833     -0.214610
Pb       7.64242      0.13510     13.03987        -0.311928     -0.554229      0.192289
Pb       7.71657      7.52299      4.30962        -0.255901      0.194645      0.128604
Pb       7.61843      7.78352     17.37440         0.375158     -0.186190      0.687993
Pb       7.67106      7.69848      8.63961        -0.045813     -0.639499      0.157258
Pb       7.55409      7.70716     13.01227         0.318875     -0.078231      0.137777
Pb       7.65064     11.55169      4.30299         0.122641     -0.264191      0.622180
Pb       7.76174     11.50459      0.00212        -0.333453      0.240429     -0.234264
Pb       7.47209     11.57171      8.53026         0.782675     -0.166896      0.356423
Pb       7.73858     11.44768     13.02505         0.245115      0.430141      0.773710
Pb      11.43764      3.80580      4.29440        -0.068981     -0.570145      0.438236
Pb      11.75442      3.88427      0.01597        -0.614919      0.062541      0.230198
Pb      11.49212     15.23487      4.30952         0.131048      0.673401     -0.000991
Pb      11.35816     15.27943      0.00885         0.610543     -0.040386     -0.040295
Pb      11.36174      3.87884      8.69718         0.476225     -0.182961     -0.305381
Pb      11.53860     15.33062      8.70942        -0.282042      0.044209      0.160687
Pb      11.61484      3.71986     13.09183         0.099010      0.506631     -0.453451
Pb      11.59829     15.35896     12.97195        -0.371422     -0.583113     -0.017605
Pb      11.48504      7.65570      4.30132        -0.170250     -0.392396      0.816024
Pb      11.56950      7.64896     17.37903        -0.288806     -0.211296     -0.255594
Pb      11.48594      7.69523      8.71600        -0.251520     -0.334753     -0.095920
Pb      11.38254      7.66689     13.06946         0.350291      0.020166     -0.589824
Pb      11.60075     11.43666      4.27662        -0.659403      0.466894      0.660022
Pb      11.41953     11.39508     17.35053         0.267854      1.063797      0.523694
Pb      11.65348     11.48072      8.55352        -1.347120      0.030888      1.584036
Pb      11.54798     11.44991     13.00288        -0.406874      0.237803     -0.063291
Ti       1.85066      1.85882      2.31624         0.901367      0.811739      0.373024
Ti       1.81321      1.84926     15.42167         0.870634      0.862129      1.506290
Ti       1.84312     13.43922      2.17893         0.606197     -0.583000      0.842850
Ti       1.87138     13.43885     15.48347         0.394050     -0.368533     -1.088143
Ti      13.45890      1.98352      2.38378        -1.414737     -1.446964      0.631741
Ti      13.41254      1.92515     15.42072         0.448636     -0.322686      0.452809
Ti      13.39677     13.48915      2.26221         0.103670     -0.298891      0.323955
Ti      13.33917     13.44965     15.34166        -0.828833      0.395339      1.444816
Ti       1.85531      1.90571      6.78475         0.299986     -0.491950     -0.567307
Ti       1.76261     13.44010      6.68688         0.730465     -0.707774      0.243240
Ti      13.37351      1.91231      6.68489        -0.200627     -0.028338      0.202847
Ti      13.36391     13.44363      6.71034         0.736465     -0.971095     -0.604995
Ti       1.80705      1.79520     11.01826         0.512040      0.987517     -0.220744
Ti       1.92402     13.29439     10.92712        -0.755508      0.106935      0.831808
Ti      13.41402      1.84126     10.99687         0.291449      0.625845      1.052661
Ti      13.38228     13.27349     10.99896        -0.025389      0.578953      1.176359
Ti       1.85618      5.73032      2.28002         0.703224      0.416086     -0.113845
Ti       1.93325      5.81214     15.33616        -0.009802     -1.762343      0.709286
Ti      13.44923      5.81882      2.54669         0.985277     -1.952495     -0.263904
Ti      13.47518      5.76535     15.32547        -0.985608     -0.487572     -0.192610
Ti       1.97669      5.71326      6.83840        -0.569997      0.115002      0.795223
Ti      13.41770      5.67376      6.57581        -0.693467      0.600132      0.457644
Ti       1.84921      5.71066     11.03418         0.768803     -0.186898      0.241560
Ti      13.38444      5.74705     10.98449         0.294223     -0.739069      3.629395
Ti       1.91882      9.60487      2.12539        -0.568081      0.027168      3.171983
Ti       1.93889      9.61593     15.46263        -0.751536     -0.348612      0.821402
Ti      13.38305      9.60372      2.34787         1.301673      0.757754     -0.446636
Ti      13.40259      9.70811     15.31477         0.326848     -0.862103      0.411735
Ti       1.94032      9.58274      6.64748         0.265774     -0.040534      0.340747
Ti      13.43005      9.38671      6.64890         0.713680      1.926513      1.298195
Ti       1.93501      9.49451     11.01128         0.280824      0.170341      1.701866
Ti      13.52990      9.47800     11.10487        -0.647370      0.390633      1.593055
Ti       5.73308      1.87987      2.32044        -0.388212      0.506421      1.231938
Ti       5.73200      1.90573     15.40715        -1.300680     -0.078973      0.924516
Ti       5.78855     13.52504      2.42232        -0.367321     -0.594874     -0.480433
Ti       5.79056     13.45326     15.38639        -0.093898      0.166556     -1.183217
Ti       5.74436      1.89380      6.66886         0.079682      0.270797      0.428943
Ti       5.60752     13.37277      6.56532         1.644641      1.140481      0.358386
Ti       5.68834      1.95024     10.97320         0.291327     -0.878685     -0.655262
Ti       5.71915     13.39522     11.10125        -0.208401      1.027359     -0.886446
Ti       5.74703      5.72209      2.32293        -0.561815     -0.722885      1.283228
Ti       5.79171      5.72925     15.40937        -0.720804      0.406042      0.813708
Ti       5.71493      5.68492      6.70322         0.714534     -0.917788      0.225791
Ti       5.78092      5.71374     11.02777        -0.918790      0.005127      0.125566
Ti       5.72746      9.54585      2.33459         0.104661      0.754639     -0.050946
Ti       5.67520      9.57240     15.46427         1.851866      0.394835      1.023436
Ti       5.72918      9.47781      6.65985         0.166554      0.068225     -0.104684
Ti       5.81238      9.63142     11.07129        -1.436200     -0.720628     -1.234971
Ti       9.58025      1.87551      2.20584         0.049536      0.376159      0.367757
Ti       9.62631      1.99395     15.45108         0.071343     -0.659862      1.485575
Ti       9.59650     13.41070      2.43742        -0.536156     -0.600995      0.899230
Ti       9.59319     13.48846     15.33134        -0.253350     -0.449159     -0.225507
Ti       9.56016      1.85792      6.71564        -0.346561      0.690099      0.672130
Ti       9.55416     13.48816      6.73354        -0.875950     -1.316399     -1.247396
Ti       9.57146      1.89954     11.00507        -0.667995     -0.852156     -0.015482
Ti       9.45246     13.48163     11.03639         1.648411     -0.646031      0.275905
Ti       9.63012      5.75180      2.31119        -1.115277     -1.217007     -0.210123
Ti       9.55820      5.72629     15.52165         1.312585      0.956458     -0.025927
Ti       9.52537      5.68008      6.70889        -0.240143      0.452836     -0.816758
Ti       9.60004      5.68311     11.01226         0.314481      0.772182     -0.818931
Ti       9.57804      9.54123      2.32330        -0.919971      0.732211      1.406662
Ti       9.60247      9.58152     15.42025        -0.765003      0.505471     -0.205527
Ti       9.58321      9.63570      6.77506        -0.347362     -0.119351      2.737731
Ti       9.63949      9.63045     10.97337         0.507315     -0.103850      0.082028
O       1.82863      1.97656      0.60359        -0.124422     -0.290668     -0.680583
O       1.86145      1.68447     13.70044         0.173632      0.223447     -1.623797
O       1.86264     13.37302      0.41309        -0.066216     -0.018876     -0.237459
O       1.79151     13.47585     13.64321         0.534767     -0.288886      1.749973
O      13.46554      2.00147      0.66887        -0.155011      0.512734     -1.397090
O      13.46578      1.79886     13.68276        -0.178542      0.138373     -0.725737
O      13.38816     13.50614      0.52151        -0.228851     -0.435911     -0.012969
O      13.22280     13.39963     13.62043         0.460398      0.466233     -0.666160
O       1.93097      1.85953      4.99594        -0.487708     -0.115261      0.192054
O       1.86826     13.52527      4.91393        -0.458834     -0.153483      0.580794
O      13.27184      1.80067      4.95918         0.449246      0.087455     -0.244240
O      13.39405     13.43809      4.94640         0.078020     -0.076625      0.077692
O       1.84408      1.90526      9.27803        -0.077381     -0.230612     -0.153033
O       1.78030     13.23252      9.18021         0.559661      0.119357      0.908721
O      13.39754      1.83747      9.27340         0.101896      0.022376     -0.978464
O      13.39558     13.28720      9.25161         0.291495      0.239181     -0.609366
O       1.89074      5.76261      0.48235        -0.114217     -0.261677      0.681453
O       1.83398      5.72558     13.58108         0.452354      0.247139      0.217975
O      13.54503      5.66627      0.77915        -0.531945      0.177190     -0.751515
O      13.42885      5.71321     13.58578        -0.172410      0.066016     -0.197782
O       1.81739      5.79548      5.16501         0.423663     -0.253864     -2.085303
O      13.36832      5.75972      4.83150         0.518649     -0.202725      0.013807
O       1.71340      5.70205      9.27462         0.332580      0.034422     -0.194517
O      13.39933      5.61812      9.32022         0.019427      0.383191     -2.418857
O       1.80043      9.64292      0.43601         0.188387     -0.249044     -1.561474
O       1.90107      9.68835     13.73653         0.173074     -0.394729      0.042684
O      13.44895      9.61817      0.56864        -0.345486     -0.379446      0.744895
O      13.37427      9.56551     13.58310        -0.000206     -0.107482     -0.026809
O       1.94546      9.55233      4.90440        -0.249435     -0.224941     -0.035473
O      13.48693      9.60649      4.93709        -0.391061     -0.336709     -1.010745
O       1.98223      9.39166      9.30350        -0.175197      0.419712     -1.135996
O      13.50931      9.55236      9.40667        -0.127094     -0.380279     -1.793817
O       5.64190      1.93169      0.61568         0.439716     -0.265152     -1.641940
O       5.51773      2.06356     13.70031         0.377497     -0.452332     -0.834849
O       5.85990     13.46201      0.64955        -0.103123     -0.224250      0.075929
O       5.60614     13.44194     13.60733         0.262988      0.076218      0.250978
O       5.61116      1.87834      4.88634         0.262442      0.325841      0.462118
O       5.61629     13.50550      4.83221         0.023146     -0.269168     -0.474580
O       5.79543      1.83558      9.17367        -0.504511      0.117040      1.246560
O       5.60720     13.35511      9.26283         0.532760     -0.103667      1.104626
O       5.63045      5.53474      0.61392         0.366509      0.764975     -0.980046
O       5.71460      5.90831     13.70099         0.269048     -0.616044     -1.012101
O       5.66647      5.61437      4.93148         0.200631      0.149571     -0.310652
O       5.90941      5.82957      9.31494        -0.308346     -0.246862     -0.229666
O       5.78606      9.75913      0.58564        -0.226871     -0.275007     -0.328750
O       5.91793      9.50147     13.76337        -0.451871     -0.045346     -1.538621
O       5.70198      9.34273      4.94264         0.210240      0.511420     -1.119649
O       5.65180      9.60427      9.25911         0.589002      0.058185      1.240235
O       9.58878      1.93372      0.41898        -0.068890     -0.173536      0.567855
O       9.53215      1.99805     13.73293        -0.162613      0.241220     -1.215097
O       9.58456     13.33413      0.73116        -0.028839     -0.058915     -1.859142
O       9.59464     13.47303     13.60564         0.158175      0.045688     -0.611667
O       9.53981      1.78743      4.97923        -0.029120      0.216134     -0.473380
O       9.30512     13.43622      4.95533         1.335405      0.277326      0.551303
O       9.39909      1.89144      9.25915         0.824855     -0.115092      0.039021
O       9.55362     13.48494      9.27976        -0.367649      0.178848     -0.022597
O       9.44814      5.79762      0.55796         0.729234     -0.065765      0.324564
O       9.70229      5.58353     13.76679        -0.570048      0.147413     -0.916333
O       9.29401      5.68937      4.91051         0.589572      0.010435      0.306066
O       9.61254      5.56596      9.23299        -0.088594      0.307089      0.485233
O       9.61685      9.71418      0.62872         0.206900     -0.075122     -2.003027
O       9.52648      9.63763     13.65961         0.253929     -0.729018      0.128614
O       9.45774      9.55071      5.12970         0.266430     -0.208688     -2.802832
O       9.70101      9.68911      9.22440        -0.312972     -0.573345     -0.015299
O       3.73379      1.75050      2.70041        -0.252054      0.660874     -0.030876
O       3.78678      1.78535     15.94391        -0.146073      0.387264     -0.672605
O       3.73625     13.54666      2.65067         0.156654     -0.628061     -0.020072
O       3.89267     13.41491     15.81065        -2.177308      0.345498      0.097986
O      15.28105      1.81270      2.83176         0.556887      0.523544      0.108191
O      15.34465      1.91790     15.84766        -0.989717     -0.100229     -0.033443
O      15.34924     13.38596      2.58923        -1.220985     -0.141605      0.412364
O      15.20028     13.43129     15.77629         1.280276      0.081443     -0.338154
O       3.81383      1.87762      7.14172        -0.522547     -0.080214      0.015268
O       3.85021     13.33937      7.05503        -1.839229      0.558854      0.082717
O      15.31400      1.89055      7.09538        -0.751125     -0.021956     -0.081407
O      15.28239     13.26371      7.14374        -0.150690      0.476771     -0.373328
O       3.76432      1.87123     11.40215        -0.600090     -0.161147      0.288210
O       3.85464     13.21576     11.46345        -1.413971      0.505375     -0.258369
O      15.32637      1.93150     11.53488        -0.120980     -0.746883     -0.220814
O      15.32677     13.30561     11.54585         0.052497      0.409410     -0.878020
O       3.81439      5.72719      2.78280        -0.669786      0.099814     -0.104635
O       3.87270      5.72162     15.84107        -0.660318      0.142034     -0.406016
O       0.03908      5.64820      2.78257        -0.714524      0.492666      0.317214
O      15.34372      5.75864     15.79155         0.351044     -0.076818     -0.189150
O       3.89415      5.64757      7.26587        -1.009177      0.006067     -0.223189
O      15.33601      5.67375      7.15619        -0.645755      0.396436     -0.464273
O       3.78932      5.82927     11.24918         0.134693     -0.286788      0.683170
O       0.03537      5.84283     11.54216        -1.418850     -0.382678     -0.324547
O       3.75171      9.49083      2.65472         0.654179      0.580921     -0.215847
O       3.86116      9.61585     15.86290        -1.279599     -0.179814     -0.089947
O      15.30968      9.76235      2.76596        -0.433420     -1.040659     -0.243462
O      15.23917      9.59392     15.83749         0.704824     -0.224385     -0.358060
O       3.88387      9.48469      7.02656        -0.851882      0.230555      0.458018
O       0.07606      9.47751      7.04147        -1.334619     -0.162290      0.155813
O       3.85782      9.47189     11.46203         0.442713      0.800082      0.303277
O       0.05646      9.47598     11.53010        -0.716498      0.121745     -0.186436
O       7.67621      1.82515      2.70337         0.140927      0.201256     -0.224324
O       7.57947      1.89022     15.78634         1.162694      0.488460     -0.081712
O       7.65867     13.48810      2.89237        -0.657465     -0.366352     -0.484873
O       7.66679     13.43787     15.65057         0.477241      0.058441      0.707422
O       7.64346      1.85857      7.10232         0.448559      0.085375     -0.381346
O       7.59199     13.45305      6.95989        -0.120047     -0.121488      0.909305
O       7.59769      1.79500     11.43707        -0.075372      1.175894      0.208959
O       7.63140     13.44492     11.49865        -0.545550     -0.197166     -0.259474
O       7.62651      5.68446      2.72518         0.119284      0.305460     -0.046244
O       7.66668      5.86295     15.82351        -0.427384     -0.447332     -0.030561
O       7.59235      5.50583      7.19312         0.581531      1.217702     -0.448019
O       7.68819      5.63418     11.42996         0.227962      0.032881      0.529772
O       7.71331      9.53647      2.57099        -0.924409     -0.314496      0.685853
O       7.65486      9.59365     15.89074         0.513176      0.218981      0.032654
O       7.61833      9.52236      7.21427         0.473604      0.385760     -0.300780
O       7.68246      9.57441     11.49417         0.157140     -0.267924     -0.421920
O      11.40964      1.96840      2.75369         0.057035     -0.350350     -0.248979
O      11.51264      1.97302     15.66473        -0.597503      0.243338      0.559789
O      11.45671     13.35127      2.87413         0.477755     -0.066974     -0.298146
O      11.46933     13.41316     15.88544        -0.049124      0.492017     -0.088652
O      11.49621      1.87009      7.09008        -0.132966     -0.169037      0.433909
O      11.51595     13.40636      7.06036        -0.535105      0.048685     -0.003941
O      11.47933      1.79587     11.36507        -0.219094      0.404703      0.141827
O      11.54359     13.48523     11.39187        -0.839380     -0.116346      0.074459
O      11.53293      5.65708      2.87302        -0.579544      0.485065     -0.720698
O      11.49544      5.78287     15.83779         0.371114      0.022014      0.477539
O      11.45947      5.70731      6.91788         0.543912      0.122378      0.527244
O      11.49245      5.61031     11.35990        -0.344107      0.030098      0.433384
O      11.44312      9.48199      2.80748         1.137290      0.371877     -0.046602
O      11.54986      9.62510     15.87054        -0.553616     -0.702771     -0.357405
O      11.57657      9.49901      7.25122        -0.927624     -0.128969     -1.089648
O      11.51249      9.54825     11.58589        -0.813455     -0.162545     -0.518089
O       1.81301      3.86026      2.79905         0.440251     -0.906920     -0.192091
O       1.87477      3.70634     15.75679         0.310990      1.624849     -0.261964
O       1.67564     15.32688      2.66619         0.823112     -0.276937     -0.307354
O       1.74279     15.29858     15.92154         0.705772     -0.639058     -0.465835
O      13.42781      3.73212      2.94056        -0.030821      1.434543     -0.114336
O      13.31708      3.86566     15.78682         0.844846     -0.050982     -0.009248
O      13.20475     15.33295      2.57842         0.533064     -0.065750      0.715218
O      13.37461      0.09072     16.04121        -0.399760     -0.771126     -1.170270
O       1.87790      3.73819      7.18464         0.189669      0.654865     -0.076641
O       1.75603     15.27791      7.22775         0.528447      0.110134     -0.458654
O      13.32729      3.86486      7.14972         0.337528     -0.955649     -0.592208
O      13.43194     15.29079      7.14550        -0.114942      0.440643     -0.151682
O       1.83086      3.77116     11.53676         0.392339      0.345646     -0.236619
O       1.80033     15.27502     11.35755         0.411866     -0.972497      0.032586
O      13.47951      3.76969     11.46513        -0.262257      0.261216      0.113505
O      13.40838     15.32887     11.38312         0.581058     -0.474998      0.140230
O       1.79959      7.71442      2.68808        -0.063496     -0.530900     -0.255994
O       1.97354      7.57933     15.83399        -0.378500      1.600398     -0.405384
O      13.43213      7.61000      2.83209         0.017376      1.975227     -0.259167
O      13.40629      7.59881     15.77966        -0.146374      1.143830      0.182829
O       1.96659      7.61533      7.13394        -0.054861      0.186717      0.285376
O      13.39709      7.58739      7.07817         0.201950     -0.645745      0.090946
O       1.90892      7.65280     11.53101        -0.113613     -0.230213     -0.031131
O      13.28291      7.61398     11.45122         0.349410     -0.427258      0.150723
O       1.88891     11.48338      2.85376         0.200082      0.712609     -1.130403
O       1.82773     11.46165     15.91233         0.475881      1.131792     -0.836702
O      13.29557     11.51194      2.74558         0.237469     -0.427205     -0.243229
O      13.30784     11.57083     15.75063         0.403463     -0.442061     -0.210852
O       1.87031     11.45467      7.00793         0.389661      0.300801      0.146216
O      13.38851     11.34757      7.21145         0.956002      0.552685     -1.212626
O       1.83280     11.42683     11.58109         0.880935      0.435963     -1.024891
O      13.33363     11.37813     11.44321         0.564448      1.267228     -0.070252
O       5.65887      3.73813      2.74453         0.092728      0.670537      0.294451
O       5.70069      3.83382     15.92851         0.538273     -0.000054     -0.903164
O       5.64373      0.02363      2.80044         0.778326     -0.720899     -0.205347
O       5.75997     15.35416     15.84989        -0.186764      0.010428     -0.133899
O       5.73107      3.77748      7.23113        -0.401784     -0.466485     -0.435898
O       5.72586      0.00624      7.02606        -0.356659     -0.941766      0.177225
O       5.51644      3.77350     11.42156         0.854333      0.895735     -0.011984
O       5.64057     15.35841     11.41728         0.058776     -0.791985      0.137835
O       5.68232      7.69008      2.67874         0.344014     -1.009272     -0.086649
O       5.78045      7.67741     15.94488        -0.616145     -0.293374     -0.219505
O       5.73401      7.56046      6.97103         0.414957      0.329184      0.770698
O       5.74379      7.61604     11.52994         0.615905      0.737172     -0.150616
O       5.71673     11.49424      2.86311        -0.051862      0.067581     -0.584351
O       5.67267     11.56021     15.72796         0.419687     -0.745264      0.412893
O       5.69427     11.45065      6.97362         0.229922      0.292565      0.001319
O       5.82795     11.49182     11.60162        -0.416973     -0.606207     -0.523599
O       9.54405      3.82487      2.70618        -0.142399     -0.363980     -0.036446
O       9.52121      3.93283     15.96114         0.106159     -1.516690     -0.465819
O       9.57799     15.26907      2.69956         0.249560      1.579740      0.050384
O       9.63474      0.01617     15.75811        -0.354577      0.380169      0.252835
O       9.60939      3.83321      7.09077        -0.096997     -1.585890      0.099100
O       9.61804     15.32298      7.18805        -0.116722      0.240319     -0.065467
O       9.56970      3.72923     11.45659        -0.080227      0.564078      0.318242
O       9.40499     15.33574     11.51113         1.007766      0.426609     -0.213630
O       9.65389      7.58641      2.76040        -0.342688      0.565026      0.078466
O       9.63580      7.73990     15.98930        -0.129487     -0.270203     -0.569708
O       9.53311      7.54061      7.08679        -0.069235      1.285650      0.584541
O       9.64853      7.64913     11.20969        -0.280514     -0.588393      0.661538
O       9.49215     11.44070      2.88806         0.607044     -0.059847     -0.271597
O       9.60340     11.52343     15.71623        -0.051270     -0.319963      0.652449
O       9.51658     11.56613      7.15692         0.307995     -0.602855     -0.385826
O       9.60216     11.50333     11.45783        -0.270330      0.365919     -0.071207
