  # total energy = -7866.60861370 
CRSYTAL
PRIMVEC
    15.010000000000000    0.0000000000000000    0.0000000000000000
     0.0000000000000000   15.010000000000000    0.0000000000000000
     0.0000000000000000    0.0000000000000000    16.400000000000000
PRESSURE
19.1147 19.1219 10.4356 0.202943 -0.172498 0.021896
PRIMCOORD
320 1
Pb       3.81370      3.85729      4.15081        -0.542844     -0.171329      0.042179
Pb       3.77453      3.70316      0.07633        -0.659628     -0.068870     -0.127694
Pb       3.66865      0.03780      4.06475         0.309020     -0.247373      0.398366
Pb       3.65168     14.92758      0.00211         0.005925      0.291488      0.478148
Pb      15.00880      3.66055      4.01556        -0.178661      0.488575      1.026810
Pb       0.06891      3.69000     16.36905        -0.012813     -0.023570      0.554273
Pb       0.05277     14.97468      3.99543        -0.598812      0.838870      1.605778
Pb      14.93923     14.93709      0.07722         0.145054      0.409768     -0.588224
Pb       3.81068      3.78539      8.21850        -0.414005     -0.497468      0.180910
Pb       3.68300     14.91466      8.14059         0.018247      0.139810      0.808250
Pb      14.99239      3.76544      8.25834         0.224873     -0.050758     -0.060395
Pb      14.97061     15.00487      8.17114         0.649781     -0.147347      1.437169
Pb       3.58588      3.77564     12.30023         0.750239     -0.041910      0.027523
Pb       3.74229     14.98833     12.32878        -0.010418      0.067750     -0.350011
Pb      15.00384      3.65565     12.36108        -0.563775      0.283277      0.111257
Pb      14.99384     14.97209     12.38567        -0.300550     -0.332041     -0.334168
Pb       3.75279      7.40811      4.03215        -0.172664      0.008867      0.771462
Pb       3.70927      7.38064      0.03834        -0.105887      0.379153      0.335465
Pb      14.95570      7.44710      4.10422         0.202935     -0.085590      0.185108
Pb       0.00257      7.51573     16.36941        -0.068756     -0.106631      0.511323
Pb       3.74833      7.46520      8.06718        -0.249087      0.067836      0.817148
Pb      14.93869      7.46927      8.27545         0.650497      0.094732     -0.479678
Pb       3.76520      7.62905     12.27071        -0.416772     -0.828901      0.132412
Pb       0.02758      7.44429     12.39284         0.093289      0.206873     -0.289747
Pb       3.72251     11.33183      4.18400        -0.036434     -0.544340     -0.292806
Pb       3.76015     11.21147     16.31210        -0.052418     -0.034495      1.037259
Pb       0.04232     11.29240      4.05592        -0.670136     -0.488202      1.073701
Pb      14.96165     11.24064     16.39487         0.433991     -0.388368     -0.099294
Pb       3.84875     11.23617      8.16011        -0.729035      0.062139      0.726130
Pb      14.94920     11.24902      8.28823         0.527494      0.435388     -0.275968
Pb       3.76328     11.34725     12.27806         0.280584     -0.358093      0.423298
Pb       0.01228     11.25697     12.32934         0.189696      0.129542      0.370587
Pb       7.51532      3.59364      4.06367        -0.539702      0.550729      0.495740
Pb       7.47387      3.75050     16.32407         0.280339     -0.270244     -0.103698
Pb       7.45081     14.95137      4.04792         0.473493      0.058004      0.030239
Pb       7.38834      0.03298      0.02129         0.926448     -0.421103      0.624659
Pb       7.47509      3.73420      8.19888         0.019860      0.076052      0.163060
Pb       7.58368      0.00219      8.17025        -0.574734     -0.171972      0.600163
Pb       7.48573      3.72531     12.22296        -0.085450     -0.161604      1.149136
Pb       7.51640     14.91642     12.38172        -0.446257      0.380856      0.112760
Pb       7.46586      7.53380      4.01773         0.022489     -0.109104      0.921737
Pb       7.47543      7.55464      0.02211        -0.040151      0.132659     -0.216919
Pb       7.42107      7.55917      8.26769         0.264107     -0.181116      0.031367
Pb       7.46306      7.43042     12.32297         0.200535      0.066939      0.298561
Pb       7.62781     11.31562      4.08712        -0.898538     -0.012035      0.170880
Pb       7.55496     11.20749     16.39984        -0.514777      0.421868      0.579330
Pb       7.50676     11.28173      8.18759         0.257862     -0.057512      0.445741
Pb       7.49127     11.17056     12.34357        -0.251222      0.313130     -0.302688
Pb      11.18883      3.74212      4.02091         0.452724     -0.322977      1.129108
Pb      11.18244      3.63519     16.34207         0.353836      0.339124      0.367776
Pb      11.23741      0.01603      4.06542         0.051201      0.188000      0.860868
Pb      11.10153     14.89183      0.08580         0.304727      0.277281     -0.249483
Pb      11.14296      3.74811      8.10382         0.247829     -0.165464      0.902148
Pb      11.19722      0.03400      8.18761         0.057910     -0.019551      0.631151
Pb      11.28689      3.70151     12.37887        -0.473781      0.032884     -0.477737
Pb      11.22810      0.06928     12.30937         0.195272     -0.088051      0.151852
Pb      11.26300      7.45568      4.10048        -0.698547      0.025498      0.756832
Pb      11.24432      7.53168     16.37961         0.041344      0.059900      0.126242
Pb      11.18973      7.49207      8.23109         0.156429      0.141809      0.064200
Pb      11.35963      7.52252     12.31391        -0.525246     -0.354004     -0.014658
Pb      11.39813     11.18333      4.10427        -0.409214      0.895895      0.961945
Pb      11.34580     11.17408      0.03112        -0.431425      0.160907     -0.170215
Pb      11.22183     11.15828      8.21583        -0.223920      0.446273     -0.068407
Pb      11.26793     11.29671     12.28777        -0.175462     -0.307832      0.250589
Ti       1.84533      1.84366      2.21695         0.587267      1.388512     -1.977660
Ti       1.87622      1.80858     14.40418        -0.660292     -0.183791      0.771036
Ti       1.80279     13.12021      2.09166         1.943279     -0.671889     -0.650365
Ti       1.86685     13.09708     14.39588        -0.182107      0.019493     -0.399175
Ti      13.09532      1.84369      2.14269         0.136187      0.265235     -0.840727
Ti      13.12265      1.76057     14.50322         0.053901      0.074638      2.467393
Ti      13.19265     13.11811      2.18378        -1.364486      0.055256      0.257064
Ti      13.11325     13.10589     14.42071         0.393952      0.366298      0.565682
Ti       1.82618      1.87886      6.23761         0.715618      0.215964      0.497247
Ti       1.84192     13.10200      6.16036        -0.547822     -0.106678      0.818874
Ti      13.11900      1.90162      6.27340         0.090246     -0.344029     -0.754797
Ti      13.16089     13.17306      6.17406         0.013857     -0.630785      0.113850
Ti       1.74477      1.81305     10.43685         1.478488      0.063505     -0.392933
Ti       1.81409     13.13484     10.34978         0.155760     -0.159970     -0.496505
Ti      13.09895      1.85165     10.27523        -1.004563     -0.487219     -0.699121
Ti      13.10328     13.12526     10.36014         0.373698      1.438300     -0.154200
Ti       1.79673      5.64166      2.16366         0.806896     -0.795024     -1.027127
Ti       1.87543      5.61122     14.39600         0.177845      0.048061      0.450624
Ti      13.03432      5.57458      2.16331         0.873134     -0.313547     -0.330438
Ti      13.11826      5.52845     14.46625        -0.292755      1.079557      0.622571
Ti       1.87361      5.58372      6.22445        -0.163126      0.548577      0.107070
Ti      13.12516      5.61191      6.22854         0.690650      0.232200     -0.233526
Ti       1.75063      5.65692     10.33047         1.566894      0.157854      1.231227
Ti      13.07048      5.59680     10.35331         0.016804     -0.310668      0.216508
Ti       1.79318      9.37824      2.27114         0.405151     -0.465169     -1.713787
Ti       1.85725      9.36303     14.49974        -0.247528     -0.047303     -0.374364
Ti      13.03605      9.27099      2.16597         1.322462      1.437231     -0.329963
Ti      13.11572      9.37433     14.32558        -0.075517     -0.617002      0.920145
Ti       1.84478      9.38727      6.17717         0.012040     -0.402164      0.233381
Ti      13.12275      9.43330      6.28107         0.059994     -0.526574     -0.873920
Ti       1.87626      9.43557     10.36352         0.770350     -1.322914     -1.057118
Ti      13.24066      9.40308     10.29699        -0.955913     -0.778943      0.810505
Ti       5.52757      1.82425      2.15064         0.478868      0.318726     -0.301961
Ti       5.59572      1.79844     14.49428         0.012640      1.100594     -1.163198
Ti       5.54070     13.08225      2.20623         0.654108     -0.166313     -1.437726
Ti       5.60745     13.13822     14.53110         0.372267     -1.268940     -0.417457
Ti       5.55093      1.77022      6.21947         0.125037      0.669417     -0.534486
Ti       5.65967     13.08843      6.20243        -0.129972      0.425818     -0.381431
Ti       5.63166      1.77513     10.38423        -1.914338      1.019015     -0.484844
Ti       5.62078     13.11166     10.35530        -0.317814      0.091799     -0.691779
Ti       5.72493      5.56529      2.11739        -1.736830      0.335896      0.667103
Ti       5.61948      5.57967     14.44346         0.146679      0.634174     -0.302706
Ti       5.67197      5.56132      6.23002        -0.463261      1.212512     -0.516891
Ti       5.56917      5.56110     10.41075        -1.167398     -0.468275     -0.374937
Ti       5.50262      9.34130      2.19084         0.718101      0.703759     -0.681240
Ti       5.57388      9.36357     14.42405        -0.253762     -0.072892     -0.072350
Ti       5.57881      9.38917      6.22642         0.789314     -1.572418      0.236064
Ti       5.66994      9.29412     10.33625        -0.491104      1.075791     -0.379170
Ti       9.33718      1.89475      2.13722         0.008791     -1.565915     -0.193602
Ti       9.38309      1.87563     14.42755        -0.536117     -0.201620     -1.035979
Ti       9.44799     13.11228      2.18467        -1.236562      1.311621     -0.136311
Ti       9.34343     13.13098     14.36953         0.368380      0.336617      0.697466
Ti       9.31992      1.95543      6.16257         0.701117     -1.352848      0.588492
Ti       9.43721     13.18782      6.26134         0.384594      0.030435     -0.381813
Ti       9.28455      1.83867     10.34371         1.272830      0.446799     -0.229703
Ti       9.37084     13.14943     10.41235        -0.488276     -0.933162     -0.751682
Ti       9.33091      5.57868      2.08600         0.090092      1.388203      0.135462
Ti       9.39309      5.70099     14.49333        -0.934166     -0.317832     -0.738071
Ti       9.38528      5.70949      6.20047        -0.782228     -0.918683      0.178303
Ti       9.29976      5.59629     10.34423         0.924330     -0.487443     -0.386984
Ti       9.39100      9.40176      2.22795        -1.034656     -0.955243     -1.352006
Ti       9.33912      9.45785     14.45902         0.371608     -1.033172     -0.741796
Ti       9.31710      9.36045      6.19807         0.108465      0.511289      0.043896
Ti       9.45907      9.36212     10.35935        -0.896296      0.368995     -0.502340
O       1.94521      1.89827      0.37250        -0.267888      0.044177      0.226169
O       1.66844      1.79981     12.61965         0.531081     -0.093594      0.194554
O       1.81815     13.10976      0.28553        -0.031664     -0.110872      0.087007
O       1.80093     13.10276     12.58247         0.351688      0.296708      0.363655
O      13.08225      1.92108      0.31229        -0.108012     -0.278083      1.230342
O      13.01268      1.73522     12.79849         0.397456      0.340709     -2.201584
O      13.16699     13.11572      0.39761         0.064727     -0.131610     -0.238815
O      13.10358     13.13330     12.65705         0.220386     -0.113349     -0.302243
O       1.72651      1.87384      4.45442         0.598848     -0.191636     -0.831375
O       1.76083     13.13944      4.35162         0.474254     -0.088437      0.862344
O      13.21235      1.82911      4.45928        -0.264867      0.138592      0.864473
O      13.13991     13.09169      4.37131         0.270562      0.105482      0.534410
O       1.82199      1.73712      8.66444         0.144087      0.720891     -0.499707
O       1.76383     13.10096      8.53793         0.082421     -0.467596     -0.198409
O      13.13048      1.85484      8.44013         0.067603      0.149296      0.620357
O      13.15757     13.16585      8.58582        -0.200850     -0.239990     -0.593273
O       1.84552      5.67614      0.31891        -0.051265     -0.427396      0.511290
O       1.84783      5.75491     12.59029        -0.192686     -0.482537      1.354343
O      12.99252      5.70826      0.40438         0.306013     -0.575036     -0.319545
O      13.16228      5.56095     12.68839        -0.534834      0.302337     -0.323676
O       1.77462      5.55527      4.43726         0.216644      0.445801     -0.496848
O      12.98772      5.61919      4.41751         0.440358      0.254345      0.540787
O       1.77370      5.62767      8.55680         0.285432     -0.197001     -0.482019
O      13.14718      5.53704      8.55459         0.017729      0.264716     -0.006027
O       1.82185      9.33310      0.41118         0.066602      0.297268      0.225770
O       1.83964      9.33172     12.70909         0.000113     -0.203487     -0.604103
O      12.95209      9.33662      0.37275         0.364515      0.446326     -0.048178
O      13.22175      9.41641     12.53999        -0.623912     -0.265391      0.390354
O       1.94580      9.29845      4.35646        -0.913068      0.386485      0.605323
O      12.99132      9.47192      4.42496         0.623953     -0.743351      0.968920
O       1.77358      9.40411      8.52623         0.265981      0.305471      1.046487
O      13.20370      9.26377      8.49331        -0.534512      0.667833     -0.136140
O       5.49688      1.86129      0.31937         0.349186      0.317282      0.550403
O       5.62240      1.76446     12.69026        -0.139898      0.105815      0.645238
O       5.47268     13.06893      0.35473         0.334952      0.104292      0.747687
O       5.63418     13.09047     12.72053        -0.312402      0.326059     -0.102854
O       5.56347      1.91928      4.37326         0.063335     -0.644512      1.002855
O       5.72540     13.18281      4.36207        -0.667402     -0.547248      0.940185
O       5.51783      1.74867      8.57062         0.184362      0.321230     -0.272181
O       5.63687     13.13772      8.52682         0.140131     -0.172504     -0.118865
O       5.88278      5.70685      0.31994        -0.714369     -0.599076      0.358334
O       5.48569      5.64273     12.66622         0.571107      0.013187     -0.616291
O       5.49326      5.63964      4.42294         0.671160     -0.330604      0.528918
O       5.52513      5.55254      8.59687         0.339001     -0.138415     -0.443336
O       5.46139      9.37889      0.37876         0.413139     -0.144949      0.127229
O       5.63285      9.33877     12.58417         0.043609      0.132214      0.583752
O       5.49780      9.24993      4.45147         0.584754      0.654800     -0.104513
O       5.62471      9.43198      8.51280         0.074246     -0.238911      0.512033
O       9.36254      1.83828      0.34434         0.108809     -0.074925     -0.733400
O       9.30200      1.71524     12.56835         0.228796      0.740861      0.861690
O       9.34164     13.15995      0.40427         0.417419     -0.195068     -0.641161
O       9.25059     13.06108     12.57367         0.367900      0.230853      0.579631
O       9.36496      1.87715      4.37214        -0.249030      0.350122     -0.032665
O       9.43094     13.26155      4.45394        -0.508584     -0.457654      0.509235
O       9.32923      1.88713      8.51573        -0.316582      0.210742      0.664982
O       9.32561     13.19521      8.58807         0.327010     -0.562465     -0.396848
O       9.25046      5.53038      0.30386        -0.095229      0.543251     -0.266995
O       9.33890      5.64445     12.70625         0.318394      0.144725     -0.953414
O       9.27733      5.64537      4.42512         0.816864     -0.245495      0.224519
O       9.21476      5.46653      8.51251         0.606130      0.621974      0.665310
O       9.55873      9.51423      0.37360        -0.857367     -0.051593      0.692499
O       9.34262      9.48878     12.63385         0.071862     -0.609244     -0.001660
O       9.32218      9.23924      4.37608         0.024704      0.732756      0.472891
O       9.44250      9.39304      8.49142        -0.207737     -0.001432      1.377187
O       3.68084      1.92455      2.49264         0.371766     -0.034372      0.249788
O       3.68571      1.94053     14.81348         0.983285     -0.539508     -0.652204
O       3.63920     13.08784      2.55923         0.736047     -0.191228     -0.218514
O       3.72673     13.16111     14.64988         0.132411     -0.246154      0.283632
O       0.02496      1.87186      2.32530        -1.533348     -0.368487      0.278686
O      14.97670      1.86896     14.83720         0.554773     -0.467472     -0.263116
O       0.03642     13.23963      2.49227        -1.647982     -0.401768     -0.604360
O       0.02488     13.22706     14.70338        -1.481035     -0.234477      0.319894
O       3.73291      1.70649      6.57130        -0.536176      0.259505     -0.236856
O       3.72025     13.05498      6.52313         0.484984      0.559236     -0.462681
O       0.06327      2.15500      6.59669        -1.891828     -0.760385     -0.126076
O      15.00491     12.73801      6.50721         0.131746      0.867309     -0.293242
O       3.64937      1.90063     10.86448         0.380658     -0.367764     -0.748967
O       3.71075     13.20396     10.49839         0.152922      0.101112      0.842139
O      14.88584      1.77823     10.72010         0.772940      0.505824      0.093110
O      14.96260     13.13233     10.67018         0.091421     -0.334087      0.209187
O       3.73743      5.55392      2.41767         0.169369      0.152494     -0.449740
O       3.75842      5.57332     14.83355        -0.665367      0.054586     -0.118416
O      14.92235      5.65856      2.41890        -0.699930      0.531805      0.180987
O      14.97645      5.65968     14.81900         0.473125     -0.021643     -0.502634
O       3.74795      5.69153      6.47035        -0.263967      0.445743      0.477471
O       0.03275      5.40692      6.49263        -1.830541      0.434134      0.241399
O       3.67461      5.64544     10.74479        -0.025247     -0.508468     -0.707910
O      14.94714      5.68325     10.73559        -0.661383     -0.212544     -0.287135
O       3.67508      9.41933      2.48389         0.166822      0.109726     -0.123127
O       3.67660      9.53195     14.71317         1.512376     -0.750057     -0.099277
O      14.89201      9.23122      2.40884         0.649610     -0.070045      0.403288
O      14.99036      9.39641     14.80837        -0.803871     -0.356166     -0.131593
O       3.75138      9.28558      6.50493        -0.147505     -0.026721      0.336066
O       0.00052      9.56505      6.52986        -0.778614     -0.097620     -0.458634
O       3.81002      9.30592     10.58526        -1.572421      0.042802      0.177518
O       0.01135      9.25615     10.72392         0.155900      0.695808     -0.502733
O       7.44354      1.78646      2.35218        -0.560820      0.288609      0.252995
O       7.50648      1.85683     14.70768        -0.649124     -0.088374      0.486810
O       7.50832     13.15428      2.40706        -0.663846      0.175673      0.268392
O       7.47333     13.12870     14.79643         0.681682      0.195925      0.055360
O       7.46894      1.87758      6.42109        -0.993843      0.209894      0.293636
O       7.56424     13.14159      6.47001        -0.895539     -0.284646      0.123823
O       7.44125      1.94775     10.66347         0.694062     -0.543124     -0.269710
O       7.40020     13.12598     10.72169         1.602643     -0.252501     -0.251061
O       7.48859      5.60559      2.67541        -0.026100     -0.334116     -1.201194
O       7.47987      5.74082     14.61353         0.375728     -0.245335      0.534573
O       7.49352      5.48382      6.52007         0.153043     -0.136946     -0.068978
O       7.47016      5.57557     10.68686         0.063980      0.079946      0.134579
O       7.46151      9.27385      2.39939         0.105980      0.810945     -0.046642
O       7.42893      9.40351     14.79418         0.837402     -0.120310      0.014116
O       7.47829      9.44718      6.62602         0.321361      0.084988     -0.467044
O       7.51237      9.30956     10.59979         0.526488      0.454461      0.070429
O      11.21137      1.87229      2.44032         0.486962      0.145526     -0.136496
O      11.22177      1.86967     14.68086        -0.197796      0.071432      0.418809
O      11.26794     13.27364      2.50967         0.964150     -0.878018     -0.727106
O      11.27720     13.15863     14.67968        -1.714520     -0.730005      0.208602
O      11.19474      1.75555      6.58957         1.269509      0.160052     -0.658730
O      11.31465     13.40162      6.50978        -0.306287     -0.507855      0.074626
O      11.22101      1.80158     10.68048        -0.544101      0.075362     -0.181757
O      11.24891     13.13078     10.78204        -0.588029     -0.095757     -0.595546
O      11.18605      5.47982      2.51240        -0.656801      0.504148     -0.489249
O      11.20406      5.68953     14.80159         1.373880     -0.419455     -0.254825
O      11.27442      5.67348      6.64440        -1.149745      0.517255     -0.453376
O      11.24726      5.63973     10.74339        -0.716095     -0.384433     -0.181601
O      11.21963      9.48684      2.55097        -0.262727     -0.185533     -0.371011
O      11.20601      9.49450     14.75114         0.961731     -0.068117     -0.611905
O      11.16244      9.25304      6.59515         1.182266     -0.064725     -0.190456
O      11.29970      9.42585     10.66801         0.010022      0.018499     -0.235865
O       1.69149      3.80170      2.36273         0.663967     -1.256347      0.213546
O       1.85678      3.69273     14.58577        -0.421453      1.299714      0.333004
O       1.90941     14.96689      2.40781        -0.030710      0.880553      0.013989
O       1.86949     14.96902     14.73854         0.082075      0.739842      0.034615
O      13.07511      3.65434      2.61759         0.238286      1.339912     -0.963255
O      13.10960      3.72552     14.80147        -0.225290     -0.101333     -0.285924
O      13.17456      0.03285      2.59996        -0.196022     -0.717696     -1.132270
O      12.94699     14.94298     14.97270         1.206702      0.374099     -0.677031
O       2.00063      3.73814      6.53545         0.612068     -0.201169      0.449557
O       1.71601     14.98843      6.57823         0.076565     -0.554059     -0.686140
O      12.93170      3.75714      6.47518         0.335857     -0.347141      0.041325
O      13.47046     14.96012      6.54980        -0.923052      1.029725     -1.099741
O       1.67002      3.74537     10.79284         0.576245      0.119935     -0.722406
O       1.76373     14.93332     10.68028         0.273400      1.151308      0.361989
O      13.06238      3.65140     10.74314         0.329540      1.320026     -0.073235
O      13.12115      0.02788     10.73534        -0.300837     -0.900031     -0.229749
O       1.92500      7.46484      2.47799        -0.606921      0.662012      0.007324
O       1.93552      7.48689     14.86683        -0.299374     -0.255079     -0.760557
O      12.88613      7.49632      2.49934         0.454924     -1.239510     -0.185465
O      13.03780      7.54944     14.78862         0.223801     -0.460141     -0.713018
O       1.72582      7.52547      6.57741         0.020328     -0.602646     -0.259074
O      13.22014      7.53643      6.49578         0.083816     -0.859950     -0.012554
O       1.81584      7.52178     10.70352         0.179352      0.110126     -0.420738
O      13.03875      7.49327     10.60910         0.256689      0.113840      0.009659
O       1.68811     11.26152      2.43109         0.367453     -0.305538     -0.156759
O       1.81198     11.24737     14.61242        -0.310354      0.474435      0.742804
O      13.21943     11.25817      2.49377        -0.433445      0.076501     -0.704593
O      13.16296     11.21084     14.68550         0.041858      0.962701      0.425908
O       2.05623     11.21779      6.36522        -0.156396      0.296961      0.199514
O      12.92104     11.27584      6.51432        -0.340638     -0.175036      0.385546
O       1.93914     11.24982     10.83364        -0.629841     -0.338974     -0.997894
O      13.22488     11.26843     10.59010        -0.487983     -0.907691     -0.031578
O       5.49715      3.71975      2.52638         1.204145      0.214622     -0.908986
O       5.66833      3.73268     14.67797        -0.065555     -0.394681      0.513284
O       5.43488     14.97014      2.39571         0.281868      0.622103      0.190794
O       5.61240     14.97570     14.96800        -0.385851      0.420008     -1.019328
O       5.39433      3.75325      6.47185         0.575996     -1.654298      0.277678
O       5.55328     14.90297      6.48862         0.513720      1.074178     -0.100658
O       5.64173      3.70050     10.64042        -0.562768     -0.012023      0.283654
O       5.65427      0.01668     10.79977        -0.450882     -1.251532     -0.265730
O       5.55903      7.44935      2.51612         0.136812     -0.023119     -0.844818
O       5.61453      7.52291     14.73723        -0.488202      0.166422      0.080372
O       5.74689      7.46053      6.70367        -0.493111      0.429289     -0.787390
O       5.67051      7.41819     10.59334        -0.060269      0.907251      0.161342
O       5.56277     11.25830      2.48422         0.379741     -0.768589      0.336327
O       5.67308     11.23775     14.82995        -0.381623      0.239522     -0.323184
O       5.64816     11.23612      6.59191        -0.238958      0.332790     -0.591301
O       5.47870     11.26711     10.63783         0.703899     -0.676316     -0.141829
O       9.28260      3.74534      2.25534        -0.188191     -0.363995      0.989545
O       9.40676      3.76176     14.70406        -0.469500     -0.279684      0.044311
O       9.40669      0.04162      2.56736        -0.407468     -0.688479     -0.740450
O       9.31607     14.99908     14.70638         0.291944     -0.426280      0.258796
O       9.40098      3.74632      6.52931         0.111059      0.587963     -0.361819
O       9.33283      0.08338      6.71943        -0.100669     -0.914864     -1.136794
O       9.36212      3.70575     10.60790         0.178376      0.452401      0.504086
O       9.25282     14.96648     10.55217         0.036162      0.844840      0.423147
O       9.34424      7.47114      2.35831         0.492072      0.258579     -0.076950
O       9.40614      7.59609     14.77759        -0.340266     -0.328760      0.056006
O       9.20171      7.51156      6.53867         0.347385     -0.439246      0.239864
O       9.36478      7.44840     10.53192         0.289376      1.061661      0.413096
O       9.32015     11.29054      2.55468         0.389553     -0.613768     -0.271547
O       9.30269     11.27971     14.72021         0.068615      0.913153      0.299309
O       9.49864     11.25994      6.51840        -0.122331      0.650955     -0.200060
O       9.32531     11.27507     10.65837         0.127437     -0.959101     -0.323487
