  # total energy = -7867.28877208 
CRSYTAL
PRIMVEC
    15.010000000000000    0.0000000000000000    0.0000000000000000
     0.0000000000000000   15.010000000000000    0.0000000000000000
     0.0000000000000000    0.0000000000000000    16.400000000000000
PRESSURE
18.9431 19.1407 10.0534 0.00256 -0.286206 -0.030535
PRIMCOORD
320 1
Pb       3.87058      3.83546      4.22186        -0.531538     -0.294960     -0.246133
Pb       3.73230      3.72141      0.05586         0.435166     -0.020910     -0.112894
Pb       3.67493      0.04549      4.09084        -0.474289     -0.423828      0.476408
Pb       3.68887     14.91511     16.39706         0.406553      0.203777      0.166128
Pb      14.97408      3.68388      4.05761         0.034276      0.057919      0.208081
Pb       0.03346      3.64643     16.34459        -0.412568      0.446201      0.514577
Pb       0.00142     15.00010      4.08891         0.403802      0.022036      0.080682
Pb      14.95464     14.91825      0.09288        -0.080772     -0.426962      0.312425
Pb       3.71336      3.78809      8.22450         0.010766     -0.045021      0.124184
Pb       3.64847     14.93017      8.10900         0.245552      0.382759      0.399878
Pb      14.93861      3.79318      8.28537         0.521752      0.222339      0.394633
Pb      14.91897     14.98060      8.15470         0.687565     -0.077486      0.112778
Pb       3.57705      3.75274     12.30155         0.422823      0.068293      0.047319
Pb       3.70693     14.95691     12.36498         0.298331      0.052288     -0.148127
Pb      14.98925      3.69119     12.39552        -0.371706     -0.004603     -0.603652
Pb      15.00623     14.95319     12.38503        -0.287143      0.665075      0.105638
Pb       3.79991      7.39508      4.09202        -0.341846      0.435045     -0.087414
Pb       3.72572      7.39700      0.06726         0.105095      0.282933     -0.075137
Pb      14.98609      7.46086      4.13080        -0.001528      0.500903      0.423192
Pb      14.98121      7.51897     16.37851         0.190420     -0.267926      0.346896
Pb       3.76434      7.48833      8.03865        -0.374313     -0.737448      1.364138
Pb      14.96018      7.49620      8.29109         0.180538     -0.173714      0.547248
Pb       3.72917      7.61953     12.26762        -0.015145     -0.526801      0.531113
Pb      14.97809      7.42790     12.38036         0.245424      0.103636     -0.357647
Pb       3.74783     11.28348      4.28053        -0.108656     -0.399784     -0.575048
Pb       3.76862     11.17564     16.29164        -0.411029      0.358513      0.851070
Pb       0.08142     11.24917      4.08128         0.220364     -0.079583      0.147675
Pb      14.97451     11.27509      0.01115         0.144292      0.402397      0.493940
Pb       3.85734     11.25120      8.13884        -0.707326      0.141137      0.449532
Pb      14.99241     11.26231      8.23912         0.009539     -0.429034      0.540375
Pb       3.76598     11.34255     12.26624        -0.088065     -0.099062      0.356642
Pb       0.02427     11.27789     12.34219        -0.194016     -0.357794     -0.055275
Pb       7.49503      3.62605      4.06401         0.246396      0.874338      0.000898
Pb       7.48816      3.72087     16.32506        -0.032769      0.391300      0.683395
Pb       7.45881     14.92684      4.09817         0.369032      0.069783     -0.236429
Pb       7.37375      0.00738      0.00912         0.226859      0.066786      0.248277
Pb       7.43111      3.70242      8.15006         0.045807     -0.191221      0.500172
Pb       7.55522      0.10352      8.12956        -0.175386     -0.177011      0.521939
Pb       7.43248      3.75936     12.26982        -0.322032     -0.209884     -0.003929
Pb       7.50179     14.89014     12.39562        -0.478135      0.814036     -0.520682
Pb       7.48001      7.53909      4.04057        -0.085050     -0.422264      0.140794
Pb       7.48274      7.55926     16.37552         0.114139     -0.594987      0.214047
Pb       7.43080      7.51383      8.27656         0.267680      0.018256      0.424120
Pb       7.46621      7.48898     12.34887         0.030994     -0.170199     -0.575155
Pb       7.67783     11.29184      4.13091        -0.759879     -0.377905      0.279574
Pb       7.54847     11.21908     16.37702        -0.037732      0.072903      0.509976
Pb       7.54141     11.30907      8.11448         0.017310      0.018391      0.619467
Pb       7.48130     11.19227     12.27756        -0.154063     -0.055931      0.252363
Pb      11.13812      3.76299      4.06090        -0.268912      0.087144      0.232047
Pb      11.22528      3.63409     16.34750        -0.459304      0.624420      0.456384
Pb      11.26100      0.00628      4.09854        -0.148400      0.071180     -0.180828
Pb      11.13271     14.90289      0.09363         0.328474      0.033564      0.003891
Pb      11.14123      3.73939      8.11756         0.117014      0.332227      0.279454
Pb      11.17221      0.06203      8.17860        -0.103908     -0.722396      0.358206
Pb      11.24507      3.69946     12.38383         0.594031      0.277990     -0.077768
Pb      11.23118      0.09612     12.35548         0.124017     -0.054095      0.097515
Pb      11.35444      7.46936      4.13834        -0.549010      0.175370      0.328606
Pb      11.26334      7.52853      0.01154        -0.102103     -0.338928     -0.051502
Pb      11.21206      7.47579      8.20410         0.087301      0.618432      0.726110
Pb      11.35692      7.49528     12.30616        -0.550839     -0.000776     -0.199702
Pb      11.44653     11.15037      4.11136        -0.826403     -0.110016      0.415274
Pb      11.38227     11.12742     16.39476        -0.615778      0.951573      0.320305
Pb      11.25345     11.18993      8.22536         0.193737      0.312126      0.705756
Pb      11.27201     11.29328     12.26950         0.125236     -0.550664      0.298611
Ti       1.90040      1.91316      2.12420        -0.642365     -1.434321      1.189546
Ti       1.85354      1.80106     14.49325         0.323310      0.238380     -0.815975
Ti       1.93160     13.13552      2.06850        -0.987972     -0.402310      0.915973
Ti       1.82144     13.11177     14.43321        -0.350695     -0.172781      0.533684
Ti      13.06827      1.89763      2.14006        -0.257525     -0.496841      0.334175
Ti      13.07696      1.74849     14.58665         0.382320      0.439059     -1.733911
Ti      13.12205     13.14050      2.23927         1.200958      0.228702     -2.275560
Ti      13.03250     13.11670     14.41364         0.373612     -0.087386      1.001835
Ti       1.79152      1.91831      6.30910         0.231728     -0.546696     -1.191457
Ti       1.89126     13.04030      6.30280         0.036859      0.466340     -1.810157
Ti      13.15116      1.90586      6.20756        -0.639788      0.084308     -1.290219
Ti      13.21591     13.09281      6.22074        -0.815452      0.243218      0.239742
Ti       1.83955      1.85690     10.37887        -0.986267      0.581892     -0.644346
Ti       1.78131     13.12486     10.40239         1.201855      0.561181     -0.862831
Ti      13.07560      1.79681     10.24459         1.115304      1.743465      2.228770
Ti      13.04900     13.19977     10.37842         0.787411     -2.222635     -0.990453
Ti       1.76330      5.58090      2.13763         0.641900      0.926016      0.899382
Ti       1.90498      5.63957     14.45569        -0.405946      0.072557     -0.565703
Ti      13.05639      5.59040      2.16088         0.099483      0.840363     -0.477791
Ti      13.12740      5.55399     14.44816        -0.025789      0.248878     -0.744389
Ti       1.78688      5.61871      6.22300         0.982691     -0.512720     -0.424254
Ti      13.15020      5.64017      6.24484        -0.944989     -0.387854      0.714223
Ti       1.79486      5.72854     10.37627        -0.489792     -1.712800     -1.158019
Ti      13.06470      5.61592     10.35438         0.064476     -0.612391     -0.167252
Ti       1.88043      9.35169      2.15393        -0.110678      0.443067     -0.428142
Ti       1.87196      9.38785     14.46539         0.084388     -0.054712     -0.043316
Ti      13.15570      9.35269      2.15928        -0.534012     -0.952413      0.655581
Ti      13.17731      9.37527     14.38216        -0.320404      0.563968     -0.117450
Ti       1.79229      9.29797      6.26107         0.470266      0.208374     -0.325401
Ti      13.14735      9.35969      6.34796        -0.144303     -0.216076     -1.161183
Ti       1.86496      9.43536     10.31702        -0.593862     -0.439122     -0.121839
Ti      13.15593      9.38617     10.38664        -0.044339      0.298319     -1.159420
Ti       5.57441      1.79627      2.13477        -0.686283      0.799879      0.097258
Ti       5.56841      1.89957     14.38869        -0.105452     -0.655863     -0.142084
Ti       5.59823     13.00750      2.19206        -0.256769      0.839212     -0.055642
Ti       5.65738     13.12819     14.52104        -1.395683      0.012521     -0.433635
Ti       5.60352      1.80933      6.17193        -0.125795      1.208495      0.751636
Ti       5.70311     13.14137      6.14901        -0.318660     -0.604415      1.022240
Ti       5.52940      1.82686     10.36012         1.066867      0.310995     -0.298637
Ti       5.63558     13.14160     10.32890        -0.887982      0.324612     -0.469071
Ti       5.59415      5.58457      2.08869         0.974911     -0.258792     -0.123464
Ti       5.64861      5.63817     14.42176        -0.514486      0.104583     -0.443321
Ti       5.69839      5.56077      6.29408        -1.644191      0.105973     -0.180729
Ti       5.50440      5.61719     10.39585         0.787632     -0.327235     -0.858326
Ti       5.56889      9.38477      2.12986         0.359021     -0.229395      1.059474
Ti       5.60222      9.40142     14.38630         0.435451     -0.317069     -0.061816
Ti       5.60911      9.34790      6.27759         0.506750      0.200556     -1.750107
Ti       5.58151      9.39399     10.27801         0.014476     -0.793402      0.931063
Ti       9.29261      1.78261      2.04886         0.558865      1.233811      0.502534
Ti       9.34018      1.86249     14.37753        -0.530044      0.249685      1.618582
Ti       9.37825     13.09349      2.08081        -0.512309     -0.605359      0.363223
Ti       9.32014     13.12899     14.40812         0.820409     -0.529908      0.540634
Ti       9.44958      1.84767      6.18060        -1.685963      0.935947     -0.319290
Ti       9.51082     13.10601      6.24522        -1.130195      0.385452     -0.661573
Ti       9.37642      1.93774     10.40592        -1.300310     -0.389182     -1.102608
Ti       9.34168     13.12347     10.43297         0.670425      0.737616     -1.699461
Ti       9.33630      5.68381      2.06882        -0.896476     -2.198696      0.039450
Ti       9.38293      5.64454     14.31988        -0.388844     -0.547509      0.827830
Ti       9.37754      5.68158      6.30229        -1.177719     -0.471705     -1.569491
Ti       9.33407      5.62911     10.32688        -1.262685      0.369988      0.014233
Ti       9.40200      9.37604      2.15840        -0.190826      0.370463      0.057563
Ti       9.39119      9.38452     14.42628         0.252359      0.041214      0.876287
Ti       9.37198      9.37742      6.21941         0.228185     -0.505397      1.412336
Ti       9.35684      9.40153     10.37818         0.585014     -1.374322     -0.974420
O       2.06044      1.82798      0.35333        -0.486037      0.445782     -0.753007
O       1.89235      1.68625     12.66642        -0.423979      0.818568      0.293925
O       1.83144     13.14979      0.27972         0.134383     -0.133705     -0.233284
O       1.90516     13.09396     12.61414        -0.520141      0.055632      0.137748
O      12.88334      1.86690      0.34785         0.644523     -0.107723     -1.203807
O      13.15555      1.69171     12.73479        -0.599528      0.393611      0.870288
O      13.31170     13.15395      0.31572        -1.285797     -0.060648      1.810388
O      13.12974     13.01478     12.63868        -0.449167      0.371693     -1.031445
O       1.74611      1.84008      4.45065        -0.434274      0.506750      0.708041
O       1.79823     13.12421      4.44707        -0.105472     -0.301755      0.949702
O      13.20897      1.92929      4.35837        -0.460463     -0.021904      0.671180
O      13.25237     13.12222      4.41362        -0.607710     -0.421579     -0.610034
O       1.76772      1.97106      8.55516         0.144955     -0.863712      0.201467
O       1.78513     12.99921      8.58104         0.485902      0.603663     -0.929032
O      13.17247      1.77094      8.48291        -0.690285      0.015000     -0.186635
O      13.07247     13.14807      8.54209         0.328894      0.433279      0.055528
O       1.68270      5.56217      0.36879         0.347830      0.174540     -1.389623
O       1.70777      5.65938     12.63617         0.752403      0.094494      0.197856
O      13.10590      5.62574      0.35413         0.014165      0.103353     -0.930416
O      13.00788      5.57957     12.55162         0.378195      0.369849      1.416295
O       1.85777      5.69518      4.37575         0.271924     -0.495646      0.748246
O      13.03626      5.59800      4.49071        -0.039302      0.062482     -1.122690
O       1.75336      5.65211      8.53580        -0.030204     -0.275388      0.241971
O      13.17781      5.56269      8.52803        -0.465159      0.331539      0.021228
O       1.88964      9.40264      0.31992         0.154701     -0.383482      0.447387
O       1.80262      9.37094     12.69111         0.119797     -0.003781     -1.006863
O      12.95113      9.36673      0.36452         0.720358     -0.605717     -0.716057
O      13.17021      9.42783     12.58174        -0.082350     -0.056008     -0.056070
O       1.77592      9.29885      4.48133         0.450869     -0.035812     -1.051559
O      13.13665      9.29816      4.48520        -0.157923      0.464848     -0.440798
O       1.83674      9.42160      8.53180        -0.068819     -0.087240     -0.790446
O      13.11881      9.40746      8.48730         0.121967     -0.370356      0.299684
O       5.43150      1.86776      0.35772         0.058954     -0.078462     -0.776467
O       5.49683      1.80347     12.60450         0.317644      0.182094      0.356730
O       5.59385     13.07306      0.40634        -0.075279      0.049108     -0.741418
O       5.62368     13.08268     12.71315         0.311229     -0.086536     -0.554854
O       5.63743      1.87992      4.38747         0.059862      0.033682     -0.112921
O       5.67503     13.06857      4.40398        -0.126839      0.279377     -0.538583
O       5.54758      1.89100      8.52615         0.041763     -0.672781      0.293865
O       5.64390     13.13902      8.52013        -0.278682      0.126986     -0.059316
O       5.68280      5.61374      0.29573        -0.371347      0.301078     -0.916078
O       5.52451      5.66724     12.60873         0.073477     -0.241855      0.347313
O       5.64480      5.54755      4.48160        -0.552686      0.289927     -1.092230
O       5.61789      5.54858      8.52042         0.044634      0.138463      0.680608
O       5.56522      9.24074      0.34406        -0.225472      0.567976     -0.438426
O       5.53873      9.47894     12.57867         0.348510     -0.305523      0.187149
O       5.64154      9.41780      4.45197        -0.092133     -0.809524      0.611996
O       5.47144      9.41132      8.51808         0.479613     -0.125394     -1.032135
O       9.40964      1.79624      0.24362        -0.300242      0.309740      0.344806
O       9.35652      1.86391     12.62731        -0.034574     -0.078763     -1.383934
O       9.30104     13.05618      0.30403        -0.032735      0.182187     -0.122622
O       9.19500     13.12753     12.58833         0.584343     -0.053630     -0.006452
O       9.43726      1.84984      4.40209        -0.370718     -0.698349     -0.538716
O       9.39814     13.08327      4.43824         0.260481      0.585045      0.109611
O       9.33712      1.91339      8.53447         0.503439     -0.226346      0.337778
O       9.49235     13.07154      8.56773        -0.501394      0.387815      0.198096
O       9.23505      5.54695      0.28891         0.636409      0.219276     -0.165934
O       9.27240      5.62039     12.52832         0.379030      0.238431      0.340528
O       9.42051      5.72235      4.48864        -0.391085      0.069372     -0.023639
O       9.18929      5.56260      8.48585         0.289238     -0.001216      0.395833
O       9.48701      9.44378      0.35672        -0.116036     -0.261207     -0.239691
O       9.31523      9.34062     12.68902         0.035424      0.034847     -1.533722
O       9.39639      9.37275      4.48147        -0.360298     -0.397884     -1.241858
O       9.49175      9.44105      8.55699        -0.485976     -0.055309      0.245171
O       3.71117      1.91881      2.67318        -0.266342      0.334782     -0.821149
O       3.70811      1.84624     14.67894        -0.075238      0.426967      0.336959
O       3.69901     13.03339      2.59794         0.538673      0.650619     -0.413656
O       3.69336     13.03629     14.68255         0.126356      0.010689      0.230542
O      14.89713      1.91783      2.26842         1.755722      0.087794      0.022558
O      14.99704      1.73316     14.84052        -0.497601      0.287164      0.005779
O       0.03722     13.11636      2.35363        -1.112963      0.106058      0.398555
O      14.89520     13.22322     14.73826         1.597744      0.178754     -0.497617
O       3.62998      1.80031      6.42478         1.681330     -0.415045      0.312359
O       3.78255     13.24766      6.35638        -0.023427     -0.219459      0.858538
O      14.90049      2.01264      6.67339         1.520540      0.255250     -0.508064
O       0.03541     12.90598      6.54499        -0.960617      0.082227      0.117200
O       3.68721      1.72569     10.58256        -0.627560      0.073428      0.214220
O       3.70154     13.25041     10.61757         0.635569     -0.407193     -0.048552
O      14.89930      1.92773     10.84192         0.042215     -0.405083     -1.095821
O      14.98005     13.01718     10.65001        -1.609768      0.233666      0.147985
O       3.70329      5.58916      2.32639         0.005993     -0.031765      0.300084
O       3.74061      5.54388     14.80983        -0.214263      0.136038      0.008770
O      14.95457      5.77243      2.55948        -0.798926     -1.228283     -0.701298
O       0.02283      5.75893     14.69135        -1.740250     -0.150706      0.167865
O       3.71947      5.64345      6.56897        -0.209879      0.223475     -0.503658
O      14.94995      5.42239      6.47313         0.537209     -0.483636      0.048521
O       3.62730      5.60208     10.67750         0.748935      0.421690      0.048566
O      14.90830      5.57644     10.65950         0.120722     -0.236028      0.188352
O       3.69040      9.38010      2.55537         0.591053     -0.395629     -0.256568
O       3.76380      9.47745     14.60487        -0.409851      0.261153      0.490801
O      14.95777      9.23252      2.48304         0.533763      0.528309     -0.506134
O      15.00287      9.36854     14.77562        -0.480910     -0.419953      0.090951
O       3.72838      9.12507      6.48856        -0.010411      0.578233     -0.314135
O      14.99680      9.60443      6.37289         0.080070      0.069795      1.063500
O       3.65624      9.20870     10.59148         1.500398      0.642001      0.227687
O       0.02611      9.45243     10.63388        -1.018639      0.055725      0.144190
O       7.40935      1.84422      2.27670         0.889307     -0.252313      0.476637
O       7.45198      1.73831     14.72363        -0.407645      0.151406     -0.058074
O       7.43983     13.05387      2.52596         0.778476      0.012604     -0.410483
O       7.49255     13.19935     14.81580        -0.452714     -0.068522     -0.129114
O       7.51665      1.93657      6.50782        -0.337310     -0.231737     -0.131578
O       7.53407     12.95489      6.45293         0.501769      0.406021      0.311111
O       7.45604      1.96318     10.59029         0.205513      0.191563      0.192582
O       7.50477     13.17005     10.54091        -0.629229     -0.637420      0.457163
O       7.47753      5.59039      2.33428         0.113763      0.171704      0.905524
O       7.49944      5.73609     14.68508        -0.779800     -0.252547     -0.211413
O       7.44186      5.36088      6.38095         1.887212      0.482624      0.671165
O       7.38447      5.48582     10.73818         0.484866      0.156299     -0.540808
O       7.48050      9.50899      2.48808         0.290505     -0.644961     -0.534225
O       7.51943      9.40951     14.80168        -1.134602     -0.613370     -0.336603
O       7.47574      9.52224      6.60739         0.690838     -0.204541     -0.062589
O       7.43265      9.43663     10.65324         0.246654     -0.087344     -0.267995
O      11.17511      1.76345      2.31560        -0.358092      0.008638      0.716251
O      11.19264      1.94710     14.64693        -0.045362     -0.111171      0.011665
O      11.22647     13.22292      2.32306         0.696199      0.045332      0.336715
O      11.14515     12.91794     14.76504         0.657872      0.682386     -0.435683
O      11.26610      1.72702      6.47838         0.509943     -0.321972      0.416928
O      11.30117     13.30597      6.52797         0.993076      0.173732     -0.184046
O      11.25716      1.85182     10.68276        -0.132718     -0.623813     -0.044343
O      11.21768     13.03056     10.65671        -0.130577      0.845395      0.451559
O      11.13932      5.63635      2.44875         1.385175     -0.421345     -0.152399
O      11.21824      5.53452     14.59036         0.752727      0.186113      0.498664
O      11.16226      5.80293      6.61389         1.815618     -0.166792      0.006643
O      11.12589      5.81676     10.53744         1.432171     -0.065153      0.052397
O      11.24429      9.30222      2.57218        -0.191458      0.305182     -0.370432
O      11.30813      9.51210     14.66160        -0.759056     -0.300742      0.061241
O      11.29539      9.11253      6.40458        -1.474155     -0.032997      0.592471
O      11.26246      9.26263     10.63865        -0.774410      0.148071      0.378325
O       1.74030      3.72044      2.37193         0.141574      0.470737      0.271818
O       1.69344      3.78393     14.65070         0.436248     -1.463192      0.250785
O       1.80954      0.01782      2.47103         0.489396     -0.062700     -0.419374
O       1.85330     14.96095     14.80114         0.246476      0.149296     -0.193298
O      13.02769      3.77522      2.40225         0.085389     -0.421594      0.211509
O      13.11714      3.67766     14.70611         0.585888      0.996549      0.166903
O      13.14702      0.03245      2.44695        -0.199530     -1.168518      0.130472
O      12.93678     14.93791     14.80717        -0.236134      0.446186      0.077972
O       1.95298      3.76624      6.60064        -0.460053     -0.320513     -0.417273
O       1.76439     14.95473      6.50429        -0.551214      0.438958      0.720521
O      12.87016      3.76154      6.50256         0.236590     -0.277190      0.163567
O      13.39186      0.00994      6.30418        -0.482563     -0.866011      0.730605
O       1.79928      3.76035     10.63783         0.147052     -0.796037      0.544897
O       1.68671     15.00867     10.69431         0.093057     -0.164260     -0.510819
O      12.94393      3.74212     10.70934         0.245930     -0.656165     -0.646605
O      13.06091     14.96820     10.75595         0.213767      0.859484     -0.488509
O       1.86122      7.47168      2.31382         0.321069      0.444735      0.202234
O       1.96042      7.54449     14.72500        -0.115758     -0.970327      0.474200
O      12.98995      7.44690      2.44219         0.258606      0.651132     -0.170006
O      13.06412      7.52190     14.57317        -0.173335     -0.701501      0.541115
O       1.65910      7.41635      6.55893         0.052689      0.996883      0.155640
O      13.44625      7.49122      6.50129        -0.823225     -0.373570      0.242747
O       1.70200      7.49247     10.56488         0.074625      1.493027      0.672811
O      13.18641      7.51746     10.51975        -0.074266     -0.537721      0.702166
O       1.77018     11.27788      2.39160         0.174303     -1.111640      0.179105
O       1.72390     11.24939     14.78662         0.252738      0.539947     -0.269990
O      13.01822     11.20513      2.34392         0.421760      0.905675      0.394388
O      13.23859     11.33229     14.78384        -0.318038     -2.270858     -0.108397
O       2.03689     11.15500      6.45460         0.365847      1.066801      0.352288
O      12.93240     11.21010      6.52351         0.081993      1.514589     -0.233828
O       1.88232     11.27976     10.65364         0.430887     -0.665852      0.339548
O      13.00994     11.21723     10.54758         0.195344      1.005324      0.424002
O       5.65953      3.74385      2.29614        -0.601877     -0.441601      0.765420
O       5.58929      3.75057     14.67337         0.338198     -0.322613      0.090157
O       5.53717     14.98276      2.40286        -0.001512     -0.911883      0.340735
O       5.48098     14.96397     14.82478         0.364560      0.674528     -0.227083
O       5.56101      3.66490      6.56261        -0.778625      0.144887     -0.231462
O       5.75497      0.00096      6.43211        -0.099743     -0.736687      0.391491
O       5.42189      3.71272     10.74529         0.095490     -0.137557     -0.215175
O       5.63582     14.96243     10.77952         0.256757      0.341281     -0.498615
O       5.68245      7.46198      2.36020        -0.438731      0.918034      0.690749
O       5.48326      7.53339     14.57416         0.301363     -0.127186      0.554481
O       5.77141      7.47109      6.56508         0.001760     -0.301329     -0.084792
O       5.62651      7.48147     10.58985        -0.054227      0.325083      0.186240
O       5.47714     11.20717      2.53777         0.376416     -0.177857     -0.540214
O       5.60857     11.28420     14.82889         0.625428     -0.917821     -0.205425
O       5.53604     11.22022      6.49576        -0.475965      0.892654      0.225954
O       5.53931     11.21853     10.59107        -0.261519      1.325580      0.037670
O       9.29430      3.65954      2.57473         0.345580      0.366844     -1.094228
O       9.22740      3.76037     14.75134         0.247112     -0.460491     -0.680527
O       9.22026     14.93713      2.37195         0.201042      0.525359      0.309319
O       9.39519     14.98865     14.74974         0.186977     -0.146615     -0.433469
O       9.44970      3.72566      6.38265         0.578731      0.412867      0.592691
O       9.29042     15.00291      6.45131        -0.123055     -0.482098      0.597713
O       9.53253      3.77651     10.72081        -0.591891     -0.089312     -0.300720
O       9.28772      0.06805     10.65731         0.537373     -1.158924      0.048646
O       9.35057      7.49087      2.25903        -0.432254      1.164546      0.462678
O       9.37010      7.47259     14.71454         0.474730      0.839529      0.177349
O       9.12436      7.52859      6.70708         0.270266     -0.133121     -0.590202
O       9.18187      7.51164     10.60579        -0.155316     -0.123141      0.023225
O       9.44566     11.25658      2.51139         0.084064     -0.197017     -0.259967
O       9.22835     11.23359     14.70877         0.050288      0.488660     -0.244585
O       9.56842     11.24881      6.47091        -0.080147     -0.397054      0.298252
O       9.37095     11.21322     10.68440        -0.164890      1.060423      0.254921
