  # total energy = -7865.00621711 
CRSYTAL
PRIMVEC
    15.010000000000000    0.0000000000000000    0.0000000000000000
     0.0000000000000000   15.010000000000000    0.0000000000000000
     0.0000000000000000    0.0000000000000000    16.400000000000000
PRESSURE
16.8343 17.1268 7.60319 0.029654 0.054806 -0.013382
PRIMCOORD
320 1
Pb       3.57877      3.66067      4.05588         0.701291      0.425810      0.432071
Pb       3.83009      3.69255     16.34092        -0.600300      0.420714      0.488387
Pb       3.79361     14.94022      4.15208        -0.339629      0.172925     -0.308303
Pb       3.72829      0.04738     16.36445        -0.142608     -0.282880      0.245066
Pb      14.99453      3.76813      4.20505        -0.333836     -0.259338      0.141432
Pb      14.98013      3.87061      0.06610        -0.297475     -0.797545      0.214550
Pb      14.99836     14.95656      4.18135         0.087695      0.262449     -0.739509
Pb      14.96294      0.03773     16.26704         0.348568     -0.111446      0.650541
Pb       3.87916      3.67838      8.18158        -0.659491      0.070072      0.001948
Pb       3.86651     14.96937      8.35746        -0.556082      0.040285     -0.525052
Pb       0.08975      3.66941      8.08357        -0.035478      0.076604      0.038033
Pb       0.15211      0.02930      8.30035        -0.288592     -0.175795      0.055618
Pb       3.91133      3.76977     12.35989         0.045716     -0.214426     -0.142855
Pb       3.78422      0.04356     12.28354         0.101646     -0.192186      0.226590
Pb      15.00424      3.71725     12.25915        -0.440139      0.274577      1.182433
Pb      14.91912      0.00027     12.26301        -0.133290     -0.587046      0.126372
Pb       3.56741      7.67021      4.15689         0.731879     -0.957009     -0.316204
Pb       3.76413      7.52099     16.35092        -0.440638     -0.709901      1.107156
Pb      14.85502      7.48906      4.12992         0.335913     -0.010894     -0.439957
Pb      14.97841      7.47145      0.03209         0.087499     -0.192786      0.026292
Pb       3.66682      7.49724      8.33891         0.178044      0.223804     -0.484146
Pb      14.96338      7.45511      8.08673         0.303642     -0.368369      0.565047
Pb       3.80791      7.37202     12.39560        -0.416261      0.885862     -0.447164
Pb       0.12158      7.49277     12.28607        -0.406228      0.390166      0.202279
Pb       3.62499     11.25376      3.92590        -0.037946      0.148152      1.042655
Pb       3.68387     11.28723      0.09720         0.157670      0.490750     -0.479299
Pb      14.80169     11.24273      4.20920         0.727875      0.132540     -0.716067
Pb      14.97390     11.16651     16.37061        -0.394399      0.844582      0.084360
Pb       3.57985     11.15278      8.25380         0.278679      0.278717     -0.232677
Pb      14.89935     11.15623      8.21680         0.802922      0.580437      0.121408
Pb       3.72020     11.17304     12.46605         0.143474     -0.188560     -0.613548
Pb      14.98846     11.18740     12.29765        -0.206729     -0.104007      0.296885
Pb       7.45324      3.76543      4.27586         0.458174     -0.318888     -0.840518
Pb       7.47974      3.79078      0.08504        -0.105419     -0.258358     -0.048082
Pb       7.43008      0.05987      4.19929         0.859552     -0.118583     -0.227227
Pb       7.56861      0.03797      0.02315        -0.074257     -0.265618      0.164285
Pb       7.60951      3.84050      8.26967         0.165402     -0.405175     -0.075737
Pb       7.40674     14.76485      8.36535         0.784834      0.644789     -0.552816
Pb       7.59490      3.60354     12.37871        -0.047876      0.749689     -0.676089
Pb       7.50224      0.03296     12.28963         0.339014     -0.761367     -0.101378
Pb       7.38988      7.48074      4.17423        -0.023499      0.397092     -0.242906
Pb       7.47441      7.45595      0.11983        -0.074480     -0.002237     -0.237620
Pb       7.49804      7.54344      8.11809        -0.045772      0.002299      0.491829
Pb       7.57694      7.38055     12.33627        -0.750072      0.560362     -0.255224
Pb       7.15810     11.28476      4.13945         1.634455     -0.604382      0.562058
Pb       7.44135     11.26556      0.06836         0.116615      0.228966     -0.355975
Pb       7.37256     11.10805      8.33229         0.713299      0.595038     -0.457265
Pb       7.52560     11.18578     12.52089        -0.148637      0.002335     -0.842932
Pb      11.44523      3.69822      4.19186        -0.773561     -0.006083     -0.178112
Pb      11.25179      3.83229      0.04579         0.303868     -0.330516      0.050939
Pb      11.28173      0.02806      4.20811        -0.655636     -0.491201      0.023766
Pb      11.26839      0.06565     16.35010        -0.165183     -0.269316      0.658697
Pb      11.37094      3.76607      8.23437        -0.047786     -0.686129      0.180774
Pb      11.34570     14.92547      8.22923         0.150603      0.213557      0.214879
Pb      11.34012      3.76225     12.32509        -0.452746     -0.541609     -0.671923
Pb      11.28664     14.87787     12.27567        -0.035089      0.415082     -0.578201
Pb      11.05198      7.42904      4.15178         0.452212      0.775500     -0.825265
Pb      11.21752      7.45501      0.04790         0.210353      0.213291      0.000274
Pb      11.20839      7.52987      8.19056        -0.346671     -0.330299      0.177698
Pb      11.22559      7.47675     12.42713         0.935308      0.046752      0.062406
Pb      11.08789     11.35560      4.23909        -0.097544     -0.272334     -0.700179
Pb      11.09620     11.35268      0.04735         0.442283     -0.592951      0.309872
Pb      11.13888     11.20357      8.20053        -0.275648      0.341984     -0.021708
Pb      11.26442     11.20991     12.39248         0.001480     -0.135891     -0.054038
Ti       1.87061      1.85798      2.10626        -1.193679     -0.569958     -0.660774
Ti       1.82958      1.86665     14.27529         0.606425     -0.079484      1.378918
Ti       1.80313     13.20023      2.08504        -0.625681     -0.332804     -0.292964
Ti       1.86975     13.16685     14.19692        -0.662321     -0.546251      0.811818
Ti      13.04252      1.82812      2.09699         2.054092      1.342002     -1.252135
Ti      13.10482      1.86055     14.40210         1.045575      0.111873     -0.176258
Ti      13.06108     13.16994      2.10191         0.538019     -0.893386     -0.319223
Ti      13.10045     13.09193     14.48189         1.386031     -0.960442     -0.979665
Ti       1.98690      1.76739      6.13976        -0.641582      1.272251      1.490234
Ti       1.89538     13.11958      6.24744        -0.138133     -0.466956      0.939331
Ti      13.17386      1.77677      6.22147         0.341899      0.055348      1.372077
Ti      13.19993     13.02895      6.17683        -1.016797      1.476914      0.268959
Ti       1.99114      1.96635     10.40696        -0.029442     -0.557857     -1.996023
Ti       1.88216     13.11770     10.33232        -0.672065      0.428310     -0.568499
Ti      13.25759      1.85711     10.30623        -2.724624     -0.388975     -1.598412
Ti      13.11318     13.00685     10.28544        -0.445780      1.361406     -0.549581
Ti       1.83885      5.57681      2.05725         0.078736      0.976012     -0.415295
Ti       1.91308      5.52782     14.34482        -0.867377      0.658115      0.327093
Ti      13.08811      5.66996      2.21272        -0.607222     -0.575569     -0.927887
Ti      13.16566      5.55883     14.30481        -0.633708      0.613132     -0.052632
Ti       1.97907      5.62214      6.11199        -1.350874     -0.859581      0.452261
Ti      13.11148      5.67346      6.22996         1.772700     -2.217116     -0.591547
Ti       1.81499      5.59029     10.26098         0.840079      0.336062      0.493635
Ti      13.14441      5.57919     10.28377         0.094708      1.083585     -0.719456
Ti       1.79214      9.42646      2.11405        -0.278441     -0.638721     -0.335428
Ti       1.85560      9.36917     14.50027        -0.103170     -0.157212     -1.436851
Ti      13.10504      9.44091      2.12778        -1.131144     -0.745475     -0.131946
Ti      13.15518      9.27410     14.37719        -1.079692      0.367519     -0.874637
Ti       1.75935      9.33554      6.07283         0.989966      1.437208      0.593387
Ti      13.04838      9.32145      6.18403        -0.593770      1.062981     -0.893827
Ti       1.84803      9.39709     10.34028        -0.272490     -0.260521     -0.020938
Ti      13.05724      9.32509     10.20306         0.147964     -0.635423      1.888093
Ti       5.60335      1.86719      2.10784         0.891116     -0.041693     -0.150115
Ti       5.68294      1.88844     14.41553        -0.599310     -0.259971     -0.248016
Ti       5.61684     13.15760      2.14432        -0.195649     -0.289839     -1.783341
Ti       5.59714     13.17302     14.35103         0.322667     -0.211752      0.880329
Ti       5.70780      1.87852      6.17341         0.836597     -0.571461      0.722522
Ti       5.56228     13.13294      6.19890         0.972340     -0.786921      0.378763
Ti       5.72881      1.85795     10.24398         0.047807      0.382368      0.170223
Ti       5.54552     13.08772     10.34746         1.313939     -0.034244      0.335348
Ti       5.53685      5.60369      2.17465         0.006588      0.068429     -0.649875
Ti       5.62150      5.64921     14.37163         0.952638     -0.282256      0.199241
Ti       5.62737      5.60451      6.17134        -0.051864      1.216524     -0.391830
Ti       5.57850      5.58968     10.26402         1.737577      0.431697      0.464312
Ti       5.56007      9.30536      2.07361        -0.052893     -0.411196      0.092109
Ti       5.57149      9.37623     14.42329         1.506479      0.490359     -1.260623
Ti       5.49401      9.36393      6.24170         0.167685      0.139464     -0.166777
Ti       5.59207      9.39409     10.24354         0.408123     -0.467660      1.378079
Ti       9.37142      1.85742      2.12523        -0.343991      0.190616      0.190842
Ti       9.43554      1.80642     14.27822        -0.013939      1.450995     -0.095253
Ti       9.29785     13.17265      2.15116         1.900817     -0.491890     -0.170261
Ti       9.38137     13.13567     14.34300        -1.080266     -1.028289     -0.566091
Ti       9.47373      1.79746      6.21707        -0.632825     -0.317185      0.081380
Ti       9.38611     13.13020      6.25182        -0.601970     -0.674659     -0.508734
Ti       9.42348      1.81766     10.15775         1.840034      0.677582      0.181833
Ti       9.32901     13.05953     10.31674         0.182827      0.045428      0.139475
Ti       9.29757      5.55352      2.11429         0.151379      0.302495      0.193717
Ti       9.34854      5.52537     14.39037         0.686062      0.382551      0.125818
Ti       9.38435      5.57037      6.19294         0.294129      0.404949      0.091807
Ti       9.38276      5.64612     10.28325        -0.388996     -0.948005     -0.110191
Ti       9.32148      9.36800      2.08538         0.857678      0.952960      0.139226
Ti       9.31959      9.26095     14.46733         0.241165      1.355687     -0.329919
Ti       9.30431      9.37041      6.14978        -0.884010      0.666426     -0.204944
Ti       9.36908      9.28589     10.41878        -0.965380      1.821420     -0.393579
O       2.05453      1.88838      0.27054        -0.721479     -0.010096      0.498099
O       1.86036      2.08748     12.51310         0.260819     -1.022020     -1.438596
O       1.83289     13.26483      0.28646         0.236757     -0.450958     -0.317983
O       1.81572     13.10008     12.38550         0.193743      0.409415      1.118250
O      13.07939      1.96888      0.14537        -0.233353     -0.900770      1.553870
O      13.18892      1.84209     12.56316        -0.078161      0.241022     -0.708309
O      13.22395     13.15217      0.24457        -0.634376      0.259548     -0.596190
O      13.13245     13.13377     12.61626        -0.135309     -0.367075     -0.355584
O       1.75920      1.87942      4.38099         0.545105     -0.569725     -0.784412
O       1.81923     13.18389      4.46928         0.202847      0.125061     -0.725140
O      13.13281      1.89428      4.42255         0.117273     -0.315829     -1.065139
O      13.11349     12.99433      4.31023         0.345034      0.258601      0.109785
O       1.94433      1.92319      8.51415         0.174022      0.149644      0.377136
O       1.93607     13.00178      8.48204        -0.290328      0.815298      0.288319
O      13.15021      1.82966      8.37653         0.488692     -0.016143      0.810762
O      13.07023     13.16858      8.46212         0.180637     -0.613100      0.277807
O       1.86756      5.61640      0.16798        -0.318059     -0.357913      0.699658
O       1.96654      5.58851     12.48247        -0.241198      0.082330      0.727945
O      12.99015      5.63212      0.31848         0.299501     -0.148301     -0.250690
O      13.23097      5.58649     12.48383        -0.194235      0.077919     -0.127917
O       1.97257      5.51854      4.31003        -0.361137      0.601422     -0.511833
O      13.21295      5.62938      4.29957        -0.598695      0.056457      0.556300
O       1.94352      5.51540      8.47082         0.060810      0.465399     -0.627943
O      13.25880      5.64545      8.41052        -0.315828     -0.063688      0.224035
O       1.85281      9.41334      0.22578         0.043505     -0.008685     -0.101663
O       1.92921      9.42622     12.54721        -0.052633     -0.047530      0.648414
O      13.08798      9.32100      0.31125         0.098469     -0.415614     -1.313776
O      13.11194      9.44012     12.49451        -0.202154     -0.578921      1.324428
O       1.79114      9.42100      4.21673         0.377688     -0.428622      1.106799
O      13.14653      9.44555      4.32451         0.027655     -0.405451      0.788920
O       1.80197      9.40372      8.48465        -0.203955     -0.254281      0.347395
O      13.05610      9.23561      8.41559         0.479231      0.638393     -1.045076
O       5.56367      1.97526      0.25432         0.325874     -0.753336     -0.493245
O       5.68531      1.96283     12.57951        -0.102948     -0.553670     -0.077312
O       5.54024     13.20257      0.25344         0.341188     -0.237494      0.782952
O       5.62973     13.14875     12.55097        -0.168407      0.253371     -0.348375
O       5.63044      1.88392      4.36526         0.688837     -0.074471     -0.349626
O       5.56053     13.01739      4.31932         0.295109      0.418077      0.120649
O       5.69002      1.74828      8.43786        -0.030348      0.670034     -0.397968
O       5.65604     13.16659      8.50653        -0.296607     -0.064695     -0.268564
O       5.70250      5.64303      0.23077        -0.048168      0.186921      0.524505
O       5.71985      5.60105     12.52970        -0.636938     -0.067761     -0.206289
O       5.59596      5.61437      4.28030         0.127308     -0.225011      0.997676
O       5.59701      5.56039      8.46625         0.028414      0.132802     -0.541794
O       5.58960      9.30411      0.25335        -0.178210     -0.091895     -0.761475
O       5.69186      9.54065     12.53094        -0.943008     -0.473709      1.117414
O       5.52605      9.24569      4.37812         0.096976      0.740520     -0.287516
O       5.59246      9.37558      8.41631         0.050358     -0.120542      0.266953
O       9.42112      1.87392      0.25673         0.039073     -0.238921      0.031183
O       9.53422      1.91086     12.43768        -0.579339     -0.019764      1.102958
O       9.29016     13.15325      0.23445         0.412898      0.346651     -0.151083
O       9.28324     13.18145     12.46384         0.340238     -0.140244      1.632768
O       9.43806      1.85399      4.35543        -0.156749     -0.063941      0.236265
O       9.34719     13.15262      4.37204        -0.019136     -0.342995      0.292844
O       9.46961      1.93253      8.32590        -0.164256     -0.162220      0.924899
O       9.35816     13.00808      8.48853         0.183327      0.378538     -0.911965
O       9.36373      5.58015      0.23965        -0.171559     -0.106389      0.051646
O       9.26593      5.62656     12.57698         0.641508     -0.198461     -0.687573
O       9.33570      5.65370      4.34740        -0.030780      0.202532      0.625781
O       9.48355      5.67499      8.46946        -0.396030     -0.096722     -0.462039
O       9.34653      9.41749      0.18557         0.245630      0.002790      0.725335
O       9.21423      9.40528     12.55695         0.716863     -0.218754      0.713060
O       9.26797      9.35037      4.33254         0.155029     -0.250023     -0.449149
O       9.33531      9.35869      8.57645         0.087647     -0.132384     -0.395799
O       3.77114      1.86545      2.49004        -0.859737      0.427348     -0.294906
O       3.75785      1.54548     14.53784         0.744840      0.363696      0.061447
O       3.74093     12.97039      2.41166        -0.119565      0.173228     -0.378811
O       3.70938     13.50671     14.58935         0.449229     -0.588307     -0.330267
O      14.96504      1.61809      2.31372         0.275682     -0.334392     -0.150461
O       0.02505      2.10198     14.68030        -0.049518     -0.166085      0.043292
O      14.96020     13.32318      2.33151        -0.118629      0.303582      0.428528
O       0.01894     12.80783     14.51344        -0.286438      0.657995      0.503360
O       3.89123      2.01816      6.29848        -1.579311      0.327484      0.431596
O       3.80638     12.99724      6.57507        -1.645537     -0.209790     -0.343486
O       0.11622      1.56903      6.49163        -1.069313      0.447066     -0.241645
O      15.00443     13.25369      6.60480         0.778883      0.279871     -0.434973
O       3.87879      2.26704     10.41759        -1.604002     -0.151050      0.610024
O       3.73139     12.98373     10.64553        -0.137764     -0.446821     -0.159073
O       0.01839      1.59361     10.46631         1.373883     -0.094465      0.445643
O      14.91903     13.39348     10.52737         1.246477      0.350723     -0.029749
O       3.67553      5.39874      2.11795         0.562314     -0.779620      0.647556
O       3.72934      5.92153     14.64384         0.264721     -0.310652     -0.401434
O      14.95659      5.77505      2.18950         0.416234      0.293745      0.423173
O      15.00344      5.35766     14.64871         1.200593     -0.523669     -0.051213
O       3.82145      5.43604      6.32348        -0.499056      0.040919      0.538762
O       0.03767      5.74621      6.34691         0.265154      0.095490      0.188873
O       3.81586      5.23617     10.45420        -1.748678      0.345931      0.308500
O       0.03304      6.01085     10.44652        -0.233437     -0.296696      0.076651
O       3.69478      9.61024      2.26230        -0.216922     -0.201088      0.154037
O       3.75689      9.07324     14.64900        -0.379226      0.515418     -0.293979
O      14.99765      9.16827      2.29966        -0.188008     -0.224328      0.091677
O      15.00283      9.59348     14.57404         0.171771      0.099727      0.292875
O       3.62770      9.39028      6.64512        -0.062440      0.119861     -0.991046
O      14.96123      9.19490      6.30393        -0.074797      0.129197      0.495539
O       3.72618      9.76941     10.48427        -0.180606     -0.191455      0.033208
O      14.92348      9.20065     10.58714         1.103504     -0.326296     -0.369047
O       7.50385      1.71688      2.33308        -0.501282     -0.390964      0.119452
O       7.56170      2.23114     14.57932         0.278036     -0.079100      0.203146
O       7.54915     13.34795      2.30552        -2.713854     -0.451657      0.455135
O       7.43300     12.82289     14.58235         1.121694      0.217903      0.330959
O       7.61215      1.67167      6.45140        -0.911617     -0.084909     -0.436050
O       7.48968     13.24138      6.48281        -0.061786     -0.250431     -0.291987
O       7.60195      1.54713     10.48283        -1.192584      0.602458     -0.004409
O       7.49636     13.46470     10.49924        -1.204922      0.273085      0.007745
O       7.43155      5.81108      2.43761         0.159655      0.178678     -0.597426
O       7.50882      5.30355     14.54999         0.027779      0.031531      0.507825
O       7.57889      5.78168      6.54164        -0.810286     -0.466167     -0.542612
O       7.49942      5.93551     10.40762         0.112500      0.082195      0.103749
O       7.40917      9.08002      2.18909         0.743132      0.141258      0.641203
O       7.47375      9.68235     14.66376        -0.350738     -0.309107      0.152546
O       7.43173      9.26904      6.34698        -0.194969      0.008003      0.510703
O       7.43904      9.08931     10.54807         0.259698      0.057705     -0.437259
O      11.23243      2.04149      2.41095        -0.005442      0.573504     -0.073438
O      11.28956      1.56476     14.61385        -1.058732      0.081347     -0.261274
O      11.25461     12.97679      2.40890        -0.500220     -0.168570     -0.297500
O      11.24145     13.38805     14.53311        -0.496805     -0.176468      0.687432
O      11.34099      1.90552      6.51063        -0.085307      0.593947     -0.451436
O      11.31517     12.87646      6.40088        -0.844607     -0.342526      0.182560
O      11.32782      2.19498     10.48885        -0.485790      0.236466     -0.179398
O      11.21417     12.84073     10.58735         0.761223      0.115943      0.138899
O      11.12540      5.35944      2.42556         1.292137      0.299261     -0.044737
O      11.27814      5.91578     14.47594         0.320563     -0.160704      0.502138
O      11.32527      5.67411      6.51563        -1.804749     -0.581268     -0.479171
O      11.30347      5.35419     10.43434        -0.279895     -0.061385      0.494812
O      11.25969      9.47788      2.44819        -1.256536      0.420425     -0.336169
O      11.19598      8.96366     14.52100         1.215270      0.536223      0.221511
O      11.20465      9.43500      6.41839         0.566175     -0.084380      0.010451
O      11.20845      9.74585     10.55225         0.446332     -0.485791     -0.116327
O       1.55951      3.68812      2.49632         1.080947      0.458777     -0.996614
O       2.25886      3.66814     14.50416        -0.315001      1.625505      0.588305
O       2.00297     14.99233      2.43301         0.268548      0.634130      0.285989
O       1.63303     15.00865     14.54049        -0.320115     -0.052028     -0.155623
O      13.38234      3.69409      2.36576        -0.826535      0.470719      0.212160
O      12.93920      3.68860     14.56351        -0.509299      1.276079      0.249356
O      12.81724      0.02045      2.37296         0.597702     -0.445432     -0.203799
O      13.29500     14.96687     14.50370         0.687202      0.084400      0.879352
O       1.77090      3.73300      6.35715         0.244204     -0.472259      0.181850
O       2.17176     14.99201      6.53862        -0.308236     -0.255625     -0.191379
O      13.28089      3.75561      6.40243        -0.209697     -0.484511     -0.081462
O      12.88083     14.85498      6.32668         0.718961      1.933052     -0.018628
O       1.41983      3.76911     10.55559         1.084622      0.308400     -0.878661
O       2.18741      0.09962     10.56084        -0.509065     -0.541645     -0.094572
O      13.50406      3.74964     10.47105        -0.232131      0.209757      0.011034
O      12.79708      0.04114     10.44578         0.559771     -0.912494      0.565045
O       2.07762      7.45730      2.39700        -0.510900      0.349046     -0.558757
O       1.58174      7.51520     14.60456         0.458636     -0.668595     -0.079150
O      12.87275      7.50219      2.39735         0.319021     -0.718023      0.246422
O      13.60138      7.40317     14.53532        -1.168148      0.829499      0.128787
O       1.95542      7.49255      6.33611         0.208604     -0.195518      0.284983
O      13.07416      7.48454      6.43053        -0.018248      0.854779     -0.057783
O       2.13453      7.53835     10.59219         0.293964     -0.588391     -0.346620
O      12.83171      7.47036     10.48847         0.011355      0.588322      0.217167
O       1.68246     11.30886      2.43843         0.011285     -0.522491     -0.515830
O       2.06123     11.28850     14.57424         0.855683     -0.089017      0.450945
O      13.30887     11.24408      2.19374         0.260004      0.870914      0.466919
O      12.92095     11.11406     14.66092        -0.491442      1.427872      0.372156
O       1.65139     11.24536      6.39130         0.411838     -0.719549      0.084790
O      13.27445     11.22637      6.44659         0.246150     -1.940602      0.270664
O       1.60302     11.32891     10.47397        -0.158808     -1.283806      0.223021
O      13.44499     11.20496     10.48148        -0.629301      0.265575     -0.344765
O       5.76915      3.67467      2.26466        -0.056128      1.364062      0.550451
O       5.35975      3.83154     14.61331         0.002505     -1.672795     -0.051436
O       5.54273     14.95653      2.40175        -0.269482      0.679605      0.236497
O       6.07672      0.05032     14.58321        -0.884848     -0.213265      0.064873
O       5.89910      3.79437      6.44692        -0.019162     -1.093141      0.008820
O       5.47937     14.95747      6.40962         0.240238      1.087116     -0.239435
O       5.95137      3.68842     10.60969         0.345246      1.009488     -0.634258
O       5.24872      0.02820     10.46336         0.870559      0.226646      0.568775
O       5.26848      7.46024      2.40351         0.245364      0.058696     -0.322563
O       5.88879      7.47395     14.43608         0.092254      1.126556      0.869641
O       5.50090      7.49082      6.52892         0.076678     -0.889831     -0.053253
O       5.22952      7.55898     10.54769         0.258618     -1.031548     -0.431151
O       5.76801     11.18373      2.27973         0.013203      0.810928      0.166241
O       5.33723     11.26593     14.66826        -0.430791      0.212630      0.134001
O       5.61978     11.19814      6.45590         0.539127      0.647565     -0.168418
O       5.90169     11.30241     10.44952        -0.010937     -0.667587      0.093852
O       9.09220      3.74587      2.40417         0.004830     -0.182203     -0.298070
O       9.82207      3.73447     14.54552        -0.574781     -0.407217      0.047725
O       9.47628      0.00493      2.42298         0.575877      0.497873     -0.300156
O       9.07996      0.01492     14.44433         0.016350     -0.468933      0.842906
O       9.31748      3.69534      6.35106         0.133250      1.441751      0.182492
O       9.71572     14.91335      6.38047        -0.504541      0.979432      0.257897
O       9.14608      3.80208     10.39406        -0.227723     -0.689631      0.434705
O       9.62544      0.00615     10.47532         0.446278     -0.059590     -0.122285
O       9.53200      7.54809      2.21190         0.008434     -1.541797      0.421347
O       9.15260      7.47162     14.68013        -0.682027     -0.935844     -0.013716
O       9.42508      7.53674      6.52499         0.363298     -0.837795     -0.367034
O       9.68280      7.50369     10.72531        -0.328374     -0.475198     -0.726077
O       9.23837     11.29235      2.29777        -0.365017     -1.095073      0.121229
O       9.64572     11.26280     14.64692        -0.250496      0.132891     -0.476632
O       9.31602     11.21225      6.45473        -0.196196      0.009619      0.183772
O       9.03998     11.28039     10.54824        -0.089685     -1.309690      0.181805
