  # total energy = -7881.75783477 
CRSYTAL
PRIMVEC
    15.3600000000000000    0.0000000000000000    0.0000000000000000
     0.0000000000000000   15.3600000000000000    0.0000000000000000
     0.0000000000000000    0.0000000000000000    17.440000000000000
PRESSURE
0.930765 1.18172 -1.79602 0.2403 0.241245 -0.028473
PRIMCOORD
320 1
Pb       3.77190      3.86831      4.22744         0.022043     -0.336387      0.430846
Pb       3.77652      3.87861     17.33737         0.087174     -0.251888     -0.261024
Pb       3.83299      0.01673      4.23226         0.429326     -0.120495     -0.330133
Pb       3.92952      0.08332      0.02612        -0.397188     -0.151213      0.334203
Pb      15.22612      3.87985      4.28712         0.659996     -0.015932      0.640271
Pb      15.22702      3.79791     17.40488         0.557573      0.004254     -0.142435
Pb      15.22301     15.28649      4.30040         0.005089      0.084282      0.059060
Pb       0.00819     15.32622      0.02485         0.264667      0.085481     -0.449888
Pb       3.88487      3.85090      8.63665         0.158995     -0.418511      0.471415
Pb       3.78404     15.26293      8.78840         0.467660      0.456495     -0.170647
Pb       0.11369      3.66993      8.66638        -0.044813      0.108227     -0.069912
Pb       0.13063     15.32988      8.60033        -0.251510      0.520685      0.704818
Pb       3.77006      3.92254     13.08571        -0.034406     -0.247231     -0.717707
Pb       3.92539     15.27112     13.24807        -0.306504      0.142855     -1.055993
Pb      15.24643      3.84193     13.00410         0.322272     -0.022810      0.014502
Pb       0.00077      0.04969     12.99868        -0.212767     -0.239548      0.083741
Pb       3.81947      7.63186      4.26498        -0.450827      0.452496      0.814522
Pb       3.80910      7.76506      0.00718        -0.046700     -0.477038     -0.232537
Pb      15.24090      7.49442      4.33327         0.468811      0.445351     -0.152969
Pb       0.09030      7.71074     17.38132        -0.810785      0.005332      0.169347
Pb       3.87374      7.53793      8.73297         0.124035      0.330363     -0.048690
Pb      15.34877      7.65107      8.72260         0.106888      0.316793     -0.237234
Pb       3.78810      7.79728     13.07994         0.091056     -0.483969     -0.556276
Pb       0.03341      7.71756     12.91067        -0.592180     -0.329965      0.663084
Pb       3.79131     11.43330      4.30231         0.227761      0.223193      0.038812
Pb       3.79710     11.40503     17.42746        -0.211825      0.906640      0.408659
Pb      15.35986     11.45944      4.27351        -0.365725      0.184146     -0.076111
Pb       0.05866     11.41082      0.02902        -0.597697      0.375444      0.044725
Pb       3.70574     11.51194      8.68904         0.438545      0.307300     -0.364953
Pb       0.05486     11.50909      8.61653         0.073266      0.008075      0.142744
Pb       3.75826     11.56199     13.02979         0.186943      0.093744      0.116882
Pb      15.18288     11.42252     13.10123        -0.030511      0.566127     -0.122270
Pb       7.61120      3.89832      4.35541         0.136634      0.000102     -0.552674
Pb       7.69133      3.86373     17.27798        -0.465621     -0.043725      0.708909
Pb       7.61347      0.05476      4.18220         0.184318     -0.431460      0.498362
Pb       7.78039     15.30396     17.43626        -0.304968      0.285754      0.186276
Pb       7.69793      3.69400      8.74023        -0.138873      0.390225     -0.109391
Pb       7.65021     15.31091      8.64850         0.091218      0.049414      0.165513
Pb       7.51862      3.69212     13.09905         0.571855      1.049665      0.380647
Pb       7.66477     15.13137     13.17016        -0.341021      0.105070     -0.562058
Pb       7.57077      7.72445      4.33045         0.285910      0.325375     -0.099371
Pb       7.79903      7.53113     17.39380        -0.142752      0.146270      0.089111
Pb       7.55480      7.67422      8.67903         0.319590     -0.395957      0.452784
Pb       7.62635      7.61002     12.99258         0.654653     -0.045619      0.791872
Pb       7.67300     11.52852      4.27911         0.064073     -0.604674      0.364782
Pb       7.72222     11.46926     17.43044         0.172761     -0.126436     -0.251825
Pb       7.70308     11.37933      8.74783        -0.696433      0.936050      0.220323
Pb       7.58532     11.44727     13.10789         0.254131      0.573204     -0.278380
Pb      11.51337      3.87376      4.39926         0.057818     -0.261652      0.036949
Pb      11.33158      3.80497     17.28819         0.910144      0.060013      0.230630
Pb      11.40640      0.13320      4.25822         0.446463     -0.452497      1.017664
Pb      11.69790      0.01939     17.31159        -0.299266     -0.242171     -0.118995
Pb      11.62105      3.76059      8.74189        -0.216584     -0.205224     -0.505103
Pb      11.48904     15.22058      8.62759        -0.077210      0.547618     -0.206646
Pb      11.42968      3.89656     12.97553         0.546584     -0.282237      0.796889
Pb      11.45719     15.28963     13.02892         0.732507      0.473123      0.381575
Pb      11.49088      7.72647      4.34675        -0.328818      0.495869      0.312668
Pb      11.48368      7.61100     17.37605         0.297960      0.378569     -0.247609
Pb      11.42560      7.57641      8.69760         0.224587      0.327690      0.045848
Pb      11.61139      7.74884     12.86096        -0.258446     -0.439975      1.215582
Pb      11.41489     11.54215      4.42699         0.281360     -0.544045     -0.085803
Pb      11.64623     11.56162      0.00441        -0.591545     -0.305939     -0.037206
Pb      11.38715     11.52340      8.75924         0.114744      0.097094     -0.182721
Pb      11.38176     11.49845     13.00054         0.165113      0.094762      0.502394
Ti       1.83294      1.92614      2.39097         0.704808     -0.325411     -1.833361
Ti       1.94250      1.81896     15.37180         0.026563      1.186464     -0.119011
Ti       1.94932     13.43347      2.29519         0.006023     -0.761930      0.074007
Ti       1.91812     13.41625     15.50460        -0.610881     -0.173942      0.214075
Ti      13.38621      1.94281      2.32849         1.362893      0.090204     -0.097289
Ti      13.51288      1.97572     15.37683         0.036731     -0.567177     -0.537233
Ti      13.35899     13.45393      2.28306         1.365565     -0.495520      0.469254
Ti      13.48732     13.43955     15.36063         0.017586     -0.279551     -0.490356
Ti       2.09741      1.93456      6.61757        -0.350112      0.915791      0.705641
Ti       1.94384     13.53416      6.54417         0.827779     -0.669841      1.030554
Ti      13.50914      1.84693      6.75622        -0.415169      0.836185     -2.180520
Ti      13.47857     13.37807      6.73393        -0.837079      0.653781     -1.423387
Ti       2.03179      1.90193     11.10923        -0.179805     -0.349978     -0.181219
Ti       1.80937     13.42034     11.01579         0.574224      0.742150      0.749918
Ti      13.44734      1.93863     11.00866         0.908985     -0.685873      0.043719
Ti      13.39097     13.48161     10.91330         1.636250      0.225532      1.404194
Ti       1.95149      5.75288      2.18961        -1.900219      0.182148      1.736528
Ti       1.84434      5.72890     15.31342         0.335554     -0.339854     -0.010761
Ti      13.36239      5.71222      2.26244         0.747434      0.640108     -0.919245
Ti      13.48959      5.76149     15.39303        -1.054881      0.974531     -0.233376
Ti       1.91131      5.83685      6.78337         0.199023     -1.062335     -1.389069
Ti      13.42519      5.77242      6.76932         0.500109     -0.378261      0.154351
Ti       1.89931      5.78887     11.00575         0.456062     -0.384257      0.083314
Ti      13.39061      5.80201     10.88693         1.247877     -0.677579     -0.193611
Ti       1.79220      9.55232      2.33640         0.240826     -0.239598      0.502427
Ti       1.87461      9.58051     15.37254        -0.864049      0.885055     -0.379857
Ti      13.34277      9.61928      2.31600        -0.072369      0.320848     -1.779784
Ti      13.36580      9.62123     15.45793         0.163339     -0.326282     -0.196083
Ti       1.86989      9.60591      6.61467        -0.269882     -0.029932     -0.587954
Ti      13.36884      9.63807      6.75944         0.322636     -0.373579     -0.563337
Ti       1.84143      9.66829     10.96044         0.257020     -1.225795     -0.713085
Ti      13.39992      9.69004     10.91427         0.157460     -0.518173      0.007232
Ti       5.80009      1.93759      2.24465        -0.481000      0.351647     -0.723134
Ti       5.79722      1.88498     15.45758         0.015004      0.125617      2.509564
Ti       5.86009     13.35653      2.30588        -0.933237      0.366392      0.418886
Ti       5.73363     13.40761     15.54846        -0.152466      0.037664     -0.859882
Ti       5.86772      1.84067      6.64326        -1.062850      0.257189      1.299082
Ti       5.77577     13.42212      6.68253         0.110830     -0.457284     -0.262315
Ti       5.83038      1.93454     11.01899        -1.918979     -0.414031     -0.590427
Ti       5.67672     13.48739     11.00369         0.430608     -0.031390      0.558849
Ti       5.71683      5.75801      2.34502         1.318688     -0.424978     -1.511887
Ti       5.70202      5.82007     15.39611         0.396281     -0.722888     -0.740516
Ti       5.83729      5.67099      6.65345        -0.461207      0.530969      0.462835
Ti       5.77274      5.81181     11.05407        -0.286596     -0.849273     -1.008180
Ti       5.62818      9.57726      2.27776         1.090342     -0.303631      0.182363
Ti       5.71450      9.57827     15.43979         0.618404      0.355039     -0.628631
Ti       5.64750      9.59045      6.76910         0.596763     -0.111494     -2.048767
Ti       5.73295      9.61970     11.09931        -0.208298      0.818488     -0.158623
Ti       9.65348      1.90138      2.24373        -0.570526      0.717184     -0.454686
Ti       9.60702      1.84520     15.37206         0.017363      0.656464     -0.955689
Ti       9.69440     13.38793      2.31577        -0.545403     -0.528420     -1.199058
Ti       9.62444     13.43048     15.48247         0.646857     -0.665087     -0.983392
Ti       9.64947      1.95045      6.60486        -0.309685     -0.597769      0.141310
Ti       9.55608     13.44152      6.69102        -0.105039      0.197316      0.227438
Ti       9.58693      1.94711     11.08591         0.006481     -0.035855      0.310624
Ti       9.66963     13.52934     11.03372        -2.065539     -1.368729     -0.847065
Ti       9.60839      5.72452      2.40731        -1.088876      0.166174     -0.144411
Ti       9.64928      5.65341     15.34098        -0.091342      0.877604     -2.338373
Ti       9.59813      5.74050      6.64102        -0.356698      0.136540     -0.744264
Ti       9.58282      5.69713     10.98517        -0.869485      0.717004      2.796067
Ti       9.55655      9.50691      2.26825        -0.264078      0.857111     -0.717493
Ti       9.55946      9.55675     15.43085         0.823747     -0.013197     -1.030184
Ti       9.59182      9.59107      6.89149        -0.705370     -0.160406     -2.845649
Ti       9.55741      9.58188     11.11157        -0.159137      0.083989      0.492112
O       1.79629      1.87392      0.57110         0.211113      0.363141      1.427704
O       2.07520      1.80364     13.59916        -0.197809      0.056792      0.108930
O       1.82020     13.29833      0.53304         0.216144      0.509142      0.656947
O       2.01216     13.27622     13.76229        -0.162460      0.496862     -0.243853
O      13.61413      2.02661      0.54927        -0.758631     -0.315591      0.043542
O      13.53400      1.93873     13.64657         0.008037     -0.202516     -0.515606
O      13.35394     13.50159      0.51284         0.062153      0.129391      0.794400
O      13.53659     13.35541     13.56586        -0.516602     -0.105234      0.962900
O       2.09943      1.94836      4.86505         0.034202     -0.118619     -0.744062
O       1.92069     13.51391      4.79422         0.068948      0.009306      0.112354
O      13.32403      2.02663      4.88473         0.530687     -0.533614      1.784522
O      13.37742     13.30450      4.88979         0.471018      0.477701      1.866583
O       2.01272      1.90940      9.31360        -0.242089      0.177190      0.690879
O       1.99153     13.40950      9.25634        -0.365477      0.136530      0.168021
O      13.48779      1.82699      9.23000        -0.069905      0.312227     -0.251431
O      13.46315     13.56731      9.15419        -0.185790     -0.165072      0.245239
O       1.89455      5.80536      0.47868         0.142047     -0.241536     -0.912744
O       1.84228      5.74294     13.51733         0.288378      0.371892      1.428841
O      13.45180      5.71972      0.45905        -0.404487     -0.161711      1.577926
O      13.43742      5.83508     13.64633         0.064271     -0.059270     -0.140288
O       1.86762      5.72156      4.97109        -0.054927      0.222240      1.022171
O      13.67282      5.67536      4.95755        -1.005842      0.033017      1.039092
O       2.01695      5.96357      9.20579        -0.430392     -0.666793      0.454081
O      13.32281      5.84859      9.03113         0.284559     -0.310801      1.984496
O       1.70357      9.60859      0.56075         0.886431     -0.158530     -0.135133
O       1.79177      9.68188     13.56385         0.320648     -0.401894      0.844993
O      13.27929      9.62905      0.43318         0.330299     -0.218677      2.546961
O      13.43434      9.69333     13.63424        -0.084224      0.050543      0.484015
O       1.75580      9.54147      4.80806         0.368318      0.266238      1.317763
O      13.27479      9.67025      4.97363         0.365953      0.242869      0.602831
O       1.78382      9.59971      9.12108         0.328465      0.057761      1.895526
O      13.35844      9.47629      9.16663         0.186373      0.315310      0.137523
O       5.90265      1.99411      0.46764        -0.777052      0.022276      0.469257
O       5.77581      1.79737     13.76689        -0.107286      0.072896     -1.616916
O       5.91986     13.28419      0.55443        -0.072257      0.061181      0.142571
O       5.70255     13.53466     13.72659         0.016342     -0.068256      1.063690
O       5.74029      1.96609      4.91207         0.279489     -0.282140     -0.597608
O       5.85660     13.50345      4.90258        -0.204843     -0.157556      0.266641
O       5.88687      1.80477      9.25038         0.108405      0.306758      0.397409
O       5.59474     13.40672      9.24046         0.294688      0.070760      0.321352
O       5.85952      5.73034      0.54228        -0.546551      0.030368      0.673432
O       5.77145      5.75731     13.57807        -0.422097      0.353174      1.573108
O       5.81661      5.72314      4.85608        -0.088234      0.044984      0.495434
O       5.93476      5.89194      9.21833        -0.854900     -0.252240      1.430328
O       5.60573      9.60967      0.48015         0.163183      0.091699      0.720102
O       5.78321      9.55887     13.63839        -0.269801      0.168179      1.031899
O       5.71952      9.51766      4.89654        -0.003010     -0.003123      1.729266
O       5.73983      9.68166      9.32763        -0.184334     -0.349235      0.277588
O       9.89105      1.86613      0.44299        -0.892885      0.303776      1.521110
O       9.49194      1.96659     13.58566         0.340467     -0.491172      0.367066
O       9.76771     13.40605      0.50028        -0.669937      0.201885      1.208336
O       9.66006     13.45553     13.62715        -0.052219      0.353638      0.952955
O       9.69205      1.96390      4.82752        -0.250769      0.041319      0.098679
O       9.61663     13.46421      4.94931         0.020703     -0.498378     -0.941752
O       9.45717      1.83291      9.35253         0.282384      0.264810     -0.036336
O       9.62844     13.45199      9.20313         0.268033      0.385047      1.668371
O       9.60046      5.82582      0.62336         0.118075     -0.276645     -0.363498
O       9.67642      5.48324     13.53157        -0.221293      0.946307      1.282416
O       9.68905      5.80552      4.80234        -0.602976     -0.346294      1.792219
O       9.46702      5.73281      9.31227         0.444096     -0.062571     -1.796734
O       9.57474      9.38816      0.45236        -0.057747      0.447302      0.837259
O       9.55421      9.69413     13.60733         0.269572     -0.184161      0.601056
O       9.64741      9.56858      5.03149        -0.488692      0.133481      1.700402
O       9.63904      9.64965      9.36902        -0.212611     -0.072008     -0.791249
O       3.91136      2.02640      2.69536        -0.773428     -0.673995     -0.105314
O       3.84923      1.83747     15.95260         0.737980      0.611587     -0.403565
O       3.94850     13.38139      2.69037        -0.704448      0.166656     -0.106047
O       3.79915     13.48927     15.98533         0.746407     -0.288932     -0.253928
O      15.31037      1.87310      2.80929         0.490801     -0.019340     -0.120033
O       0.09730      1.98253     15.77221        -0.698535     -0.374583      0.159282
O      15.33772     13.52236      2.74960        -0.042487     -0.388943     -0.344095
O      15.32807     13.49549     15.85578         0.807205     -0.301540     -0.103590
O       3.92371      1.95347      7.21810         0.450827     -0.032079     -0.743688
O       3.81484     13.39508      7.11531        -0.153473      0.336424     -0.529464
O       0.11592      1.84477      6.98005        -0.794127      0.495565      0.269535
O       0.11372     13.48669      7.14111        -0.793503     -0.045971     -0.797331
O       3.89002      1.88500     11.45038        -0.389335     -0.105715      0.290021
O       3.75502     13.52439     11.51112         0.341332     -0.494943     -0.008021
O       0.00970      1.92532     11.46873         0.269753      0.035712     -0.016380
O      15.30920     13.49211     11.50483         0.305062     -0.832312     -0.821293
O       3.73985      5.91617      2.65775         1.168078     -0.959867     -0.185413
O       3.80066      5.90566     15.86340         0.206799     -0.842716     -0.565908
O      15.29060      5.72301      2.71706        -0.222446      0.088229     -0.338415
O      15.31869      5.75713     15.83960         1.659647      0.392248     -0.351665
O       3.88688      5.76986      7.14976         0.288287     -0.263998     -0.398954
O       0.02473      5.68026      7.23051        -0.682786      0.441894     -0.307322
O       3.85233      5.92667     11.41029        -0.343357      0.069234      0.149359
O      15.34375      5.74818     11.37679        -0.416867     -0.033449     -0.575510
O       3.75284      9.56611      2.83508         0.437635     -0.554105     -0.763017
O       3.74548      9.70290     15.90981         0.397969     -0.714853     -0.900805
O      15.32469      9.71716      2.68656        -1.408997     -0.446344      0.008952
O      15.30364      9.57780     15.92541         0.528191      0.338126     -0.784607
O       3.75205      9.56842      7.01337         0.378868      0.227131      0.166228
O      15.29137      9.62111      7.11139         0.227372     -0.083962     -0.270546
O       3.83981      9.54063     11.48496        -0.872058      0.115628     -0.366244
O      15.25930      9.62431     11.36121         1.355608     -0.151154     -0.096491
O       7.64331      1.88245      2.54363         1.706351      0.395968      0.556605
O       7.68998      1.94148     15.87772         0.427319     -0.401156     -0.370315
O       7.79270     13.41289      2.76209        -1.095887     -0.023395     -0.278789
O       7.70413     13.42831     15.83803         0.043870     -0.211788      0.067191
O       7.72232      1.86627      7.12795         0.356499     -0.158815     -0.431886
O       7.68874     13.35117      7.09110        -0.607568      0.322159      0.158666
O       7.59487      2.02533     11.55259         1.536880     -0.292750     -0.448034
O       7.60370     13.45028     11.49746         0.625788      0.345129     -0.224976
O       7.71396      5.77054      2.71484        -0.927511      0.134453      0.455185
O       7.75002      5.72734     15.78741        -1.023864      0.486224     -0.152433
O       7.69669      5.79642      7.07481         0.275267     -0.095733     -0.544204
O       7.60647      5.71296     11.50310         0.729120     -0.001072     -0.134810
O       7.57985      9.66067      2.66087         0.240217     -0.758816     -0.081429
O       7.68214      9.56560     15.82883        -0.659206      0.242586     -0.033126
O       7.58943      9.57942      7.28597         0.660386     -0.002129     -0.679896
O       7.71417      9.64661     11.48144        -0.832998      0.098684     -0.037016
O      11.59197      2.03956      2.81569        -1.987748     -0.431464     -0.768096
O      11.59986      1.97448     15.67343        -0.785496     -0.320923      0.354995
O      11.53748     13.33762      2.77098        -0.726520      0.709289     -0.149189
O      11.54842     13.47203     15.86728        -0.180218      0.478878     -0.559745
O      11.47894      1.88818      7.04805         0.402926      0.016411      0.447159
O      11.49530     13.37504      7.15482         0.588203      0.165742     -0.275423
O      11.61488      1.99307     11.39303        -1.878019     -0.481042     -0.026493
O      11.55067     13.46489     11.47248        -0.767299      0.025448     -0.546511
O      11.43463      5.77752      2.80555         2.072673     -0.189611     -0.400625
O      11.51751      5.68395     15.81564         0.038503     -0.096762     -0.076505
O      11.47884      5.65885      7.17098         0.157400      0.119287     -0.592235
O      11.59898      5.70604     11.42192        -0.836164      0.422190     -0.696908
O      11.44010      9.60873      2.81840         0.368937      0.182855     -0.493978
O      11.47302      9.57846     15.82478        -0.125611      0.174263     -0.275325
O      11.45945      9.63289      7.14998         0.263116      0.177882      0.440076
O      11.55146      9.62781     11.36120        -0.863895     -0.100592      0.389502
O       1.95343      3.82076      2.64323        -0.245457      0.548437     -0.020537
O       1.98917      3.83339     15.62115         0.325742      0.859581      0.423609
O       1.98775     15.29814      2.61632         0.048805      0.755452      0.365116
O       1.98523      0.05162     15.91317        -0.442816     -1.522688     -0.075463
O      13.44733      3.84274      2.73692        -0.344909      0.678063     -0.278046
O      13.55589      3.86237     15.59869        -0.210146     -0.077225      0.899158
O      13.35569      0.05911      2.76965        -0.049360     -0.758748     -0.423227
O      13.52599     15.31509     15.71418        -0.394913      1.176172      0.411822
O       2.00443      3.84262      7.20627        -0.282668     -0.128088     -0.316986
O       2.05386      0.12376      7.12346        -0.226089     -1.977642     -0.558692
O      13.41642      3.72940      7.18227         0.231389      0.751785      0.001826
O      13.48945     15.33836      7.09087        -0.250894     -0.340611     -0.279109
O       1.98546      3.87657     11.56418        -0.075410     -0.166655     -0.767305
O       1.85649     15.29353     11.44189         0.191366      0.519540     -0.157126
O      13.49286      3.82458     11.43494        -0.169306      0.964527     -0.784310
O      13.44690     15.32058     11.49765        -0.308897      0.499964     -0.329039
O       1.73800      7.64726      2.68658         0.408619     -0.142977     -0.142599
O       1.92842      7.75157     15.82905        -0.239249     -0.856937     -0.419411
O      13.32182      7.75314      2.77337         0.596127     -1.065813     -0.405812
O      13.41650      7.75631     15.80927        -0.086716     -1.014185     -0.094939
O       1.93431      7.70652      7.02407        -0.459844      0.013464      0.192640
O      13.32445      7.68845      7.00166         0.272780     -0.663117     -0.009121
O       1.83675      7.62999     11.46313         0.226907      1.582299     -0.325185
O      13.48192      7.64828     11.46368        -0.347789      0.187689     -0.929362
O       1.97489     11.42676      2.74372        -0.343886      1.481830      0.001034
O       1.79980     11.50056     15.87883         0.480548     -0.136637     -0.167201
O      13.40249     11.53824      2.68437         0.027710     -0.020787     -0.135377
O      13.38157     11.56788     15.96471         0.541238     -0.355623     -1.024727
O       1.90905     11.56388      7.07131        -0.237628     -0.223830     -0.586970
O      13.42024     11.57800      7.23234         0.203879     -0.635972     -0.347651
O       1.95693     11.45016     11.34337        -0.193683      0.711625     -0.003553
O      13.45569     11.53964     11.33646        -0.294789      0.236441     -0.383417
O       5.77195      3.89535      2.76762        -0.076873     -0.259371     -0.106023
O       5.81681      3.87207     15.73715        -0.703848      0.192180      0.080896
O       5.78735      0.01037      2.64857        -0.088172     -0.514475     -0.097696
O       5.86312     15.29459     15.99434        -0.471483      0.534181     -0.344038
O       5.94775      3.75789      7.09157        -0.684029      1.024691     -0.203450
O       5.80027     15.31530      7.12199        -0.189017      0.027099     -0.329528
O       5.54529      3.90001     11.25925         0.731849     -0.206125      0.633892
O       5.78052      0.03596     11.44842        -0.108988     -0.492602      0.207702
O       5.69752      7.61287      2.71917         0.217586      1.104608      0.027037
O       5.63429      7.73198     15.87173         0.523843     -0.533868     -0.362074
O       5.76881      7.63267      7.15407        -0.188581      0.308437     -0.480637
O       5.82026      7.77700     11.61541        -0.342517     -0.605121     -0.897099
O       5.68385     11.41468      2.78029         0.332956      1.034825     -0.309946
O       5.69876     11.51591     15.79794         0.309645     -0.418223      0.195616
O       5.75837     11.49897      7.07234        -0.346616     -0.315327      0.040539
O       5.67997     11.60439     11.59749         0.138532     -0.882560     -0.536829
O       9.55021      3.81728      2.71414         0.308359     -0.722231     -0.224393
O       9.55519      3.76104     15.61929         0.438096      0.231614      1.261817
O       9.53747     15.35849      2.67204         0.953840      0.364491     -0.149085
O       9.55010      0.03182     15.87992         0.551477     -0.595569     -0.484258
O       9.53252      3.83797      7.10854         0.227172     -0.031293     -0.309089
O       9.57450     15.33514      6.93620         0.166305      0.480059      0.548351
O       9.59526      3.87228     11.43055        -0.003582     -1.096279     -0.367228
O       9.59102      0.04630     11.48672         0.091014     -0.283606     -0.018741
O       9.55345      7.73252      2.76920         0.040594     -0.654179      0.071823
O       9.65811      7.58992     15.68345        -0.297832      0.524115      0.145291
O       9.59060      7.64148      7.17993         0.165831     -0.098895     -0.199712
O       9.52166      7.62419     11.45621         0.634189      0.566860     -0.250057
O       9.52155     11.45192      2.69426         0.420028      0.746055     -0.061986
O       9.68278     11.56270     15.75559        -0.549319     -0.659902      0.306701
O       9.50953     11.51553      7.23457         0.627130     -0.639054     -0.246383
O       9.49021     11.63300     11.44919         0.935495     -0.619450     -0.040058
