  # total energy = -7868.94034088 
CRSYTAL
PRIMVEC
    15.010000000000000    0.0000000000000000    0.0000000000000000
     0.0000000000000000   15.010000000000000    0.0000000000000000
     0.0000000000000000    0.0000000000000000    16.400000000000000
PRESSURE
18.0516 18.1399 9.51308 0.189178 -0.094015 -0.02483
PRIMCOORD
320 1
Pb       3.96485      3.68633      4.28531        -1.077128      0.253975     -0.573396
Pb       3.81616      3.77428      0.10026        -0.320126     -0.239559     -0.810111
Pb       3.70271      0.12086      4.12481         0.214567     -0.817139     -0.188117
Pb       3.80951      0.02020     16.35951        -0.597884     -0.229380     -0.003173
Pb      14.92424      3.63957      4.08460         0.447977      0.736604     -0.356836
Pb       0.00679      3.66249     16.34319         0.016717      0.412184      0.229450
Pb      14.94672      0.04882      4.20677         0.516179     -0.353991     -1.004701
Pb      14.89915     14.98457      0.04040         0.629855      0.558033     -0.374665
Pb       3.79758      3.64395      8.28810        -0.079514      0.735433     -0.202958
Pb       3.83188     14.93186      8.27238        -0.326831      0.045716     -0.334493
Pb       0.01893      3.74390      8.27679         0.452964      0.311496     -0.427777
Pb      14.93754     14.89833      8.15727         0.767452      0.342971      0.182617
Pb       3.82538      3.70811     12.23159        -0.597798      0.647966     -0.204844
Pb       3.75120      0.01160     12.43883        -0.318454      0.025014     -0.740304
Pb       0.00292      3.68139     12.31461         0.432767      0.272159     -0.178724
Pb       0.00961      0.01223     12.28591         0.238429     -0.122373      0.000340
Pb       3.58016      7.56795      4.07328         0.339936     -0.520243      0.103937
Pb       3.77206      7.41925      0.18215        -0.119948      0.561617     -0.659317
Pb      14.93653      7.49138      4.10160         0.156439     -0.219476     -0.006853
Pb      14.96898      7.51112      0.07005        -0.077268      0.110820     -0.437070
Pb       3.70184      7.58289      8.06892         0.162745     -0.815976      0.307047
Pb      14.99976      7.54268      8.19814         0.368981     -0.594991      0.152782
Pb       3.76076      7.56727     12.29603        -0.146174     -0.378294     -0.398145
Pb       0.03347      7.35422     12.31153         0.138265      0.321817     -0.276074
Pb       3.60469     11.20166      4.17027         0.372479      0.608289     -0.260719
Pb       3.74447     11.03912     16.31543        -0.284594      1.015657      0.253252
Pb      14.97406     11.19971      4.09312         0.027780      0.411175     -0.016028
Pb      14.94448     11.37087      0.07058         0.072727     -0.673801     -0.585668
Pb       3.68742     11.09399      8.23387         0.116060      0.447297     -0.625265
Pb      14.98534     11.15463      8.15016         0.049961      0.479734      0.002453
Pb       3.76572     11.28368     12.34848        -0.155787     -0.258449     -0.437469
Pb       0.00706     11.27508     12.32415         0.020923      0.214489     -0.412092
Pb       7.49674      3.71177      4.13391         0.114942      0.003702      0.024973
Pb       7.50135      3.84324     16.35850         0.428329     -0.659556      0.122084
Pb       7.47312     14.86957      4.20393        -0.314430      1.054264     -0.070410
Pb       7.33337     14.99279     16.37625         0.754396      0.154588      0.062873
Pb       7.50679      3.66189      8.23395        -0.153469      0.375631     -0.638708
Pb       7.49919      0.00133      8.26747         0.005057     -0.116962     -0.707457
Pb       7.44618      3.71753     12.27312         0.361275      0.473795     -0.533104
Pb       7.56945     14.86114     12.39140        -0.042244      0.505388     -0.392677
Pb       7.30489      7.51799      3.99714         0.771193     -0.039825      0.684500
Pb       7.46050      7.43222      0.02867         0.568163      0.896882      0.189885
Pb       7.48152      7.49319      8.34866         0.331074     -0.228076     -1.207758
Pb       7.56476      7.44271     12.46681        -0.400693     -0.025404     -0.933108
Pb       7.47827     11.32513      4.06962        -0.297332     -0.228626      0.438592
Pb       7.52423     11.26501      0.06033         0.040561     -0.205169     -0.501212
Pb       7.43929     11.20490      8.22407         0.486275      0.263129     -0.158311
Pb       7.53846     11.17766     12.32576        -0.250528      0.242164      0.053263
Pb      11.17037      3.74953      4.12051         0.425151      0.128047     -0.035799
Pb      11.31965      3.81986     16.37221        -0.409612     -0.475672     -0.053865
Pb      11.41361     14.95791      4.20778        -0.689170      0.585037     -0.472808
Pb      11.10921     14.88710      0.07350         0.283167      1.035368      0.054717
Pb      11.43444      3.74705      8.12595        -1.236192      0.229208      0.110786
Pb      11.33136     14.88588      8.23022        -0.698829      0.494029     -0.215335
Pb      11.33200      3.70362     12.19924        -0.496254      0.100591      0.204847
Pb      11.30314      0.11339     12.28409        -0.752071     -0.334930     -0.202749
Pb      11.23470      7.45826      4.15977        -0.312336      0.049908     -0.008835
Pb      11.13391      7.44431      0.09981         0.374223      0.513731     -0.239156
Pb      11.10403      7.43815      8.18361         0.252552      0.478939     -0.208950
Pb      11.27880      7.33938     12.28744         0.281051      0.719756     -0.326989
Pb      11.29851     11.26963      4.14001        -0.127033      0.137312     -0.158117
Pb      11.21354     11.15778      0.03532        -0.019130      0.287816      0.094809
Pb      11.10912     11.20161      8.27577         0.298223     -0.009961     -0.369720
Pb      11.19282     11.30339     12.25342         0.061641     -0.134089     -0.151802
Ti       1.95370      1.91435      2.13035        -1.173650     -0.531751      0.229845
Ti       1.94572      1.91819     14.51953        -0.487492     -0.194904     -0.890295
Ti       1.82720     13.15913      2.03937         0.035988     -0.082798      0.466194
Ti       1.82409     13.15645     14.35111        -0.256085     -0.075480      1.251979
Ti      13.05998      1.88731      2.06644         0.323233     -0.147547      0.239301
Ti      13.12373      1.84529     14.36932        -0.040071      0.102507      0.594745
Ti      13.15413     13.16501      2.06363        -0.588171     -0.374779      1.327372
Ti      13.03620     13.12330     14.37453         0.758018      0.144812      0.357652
Ti       1.83440      1.89679      6.23420         0.553499      0.253229      0.509155
Ti       1.92651     13.14235      6.18372        -0.795960     -0.072372      0.485995
Ti      13.14747      1.97836      6.19884        -0.341747     -0.893226      0.292618
Ti      13.15600     13.13444      6.23040        -0.703498     -0.732199      0.336436
Ti       1.83603      1.89098     10.26872         0.651596     -0.788335      0.724920
Ti       1.82600     13.13185     10.24111        -0.124704      0.447237      0.073615
Ti      13.06938      1.84362     10.26644         0.232770      0.506122      0.440083
Ti      13.05712     13.09198     10.24421         0.509556     -0.207902      0.620321
Ti       1.89285      5.60701      2.05131        -0.674848      0.145775      1.637794
Ti       1.92581      5.70017     14.40969        -0.701528     -1.094628     -0.360235
Ti      13.15758      5.64570      2.16972        -0.474191     -0.849676      0.378791
Ti      13.14300      5.68792     14.46828         0.296002     -0.402387      0.136044
Ti       1.88392      5.58845      6.10592        -0.133886     -0.056918     -0.143919
Ti      13.13257      5.69563      6.22619         0.350040     -0.782186     -0.902966
Ti       1.93133      5.63303     10.28672         0.065535      0.229850     -0.259675
Ti      13.14612      5.65162     10.24857         0.449885     -0.190188      0.903028
Ti       1.77173      9.39080      2.03235        -0.102909     -0.064603      1.532492
Ti       1.86557      9.40237     14.32571         0.072558     -0.521411      0.713938
Ti      13.01654      9.37882      2.20344         0.514877      0.111268     -0.480436
Ti      13.15636      9.38335     14.35892        -0.394495      0.228004      0.383291
Ti       1.84374      9.35841      6.13871         0.246249      0.253784      0.748068
Ti      13.07343      9.34553      6.32065         0.196291      0.851442     -0.621819
Ti       1.87913      9.38524     10.24332        -0.041367     -0.615398      0.610781
Ti      13.14792      9.37768     10.30008        -0.372164     -0.183067     -0.208726
Ti       5.64204      1.84390      1.98613        -0.154498     -0.351401      0.527362
Ti       5.65537      1.96087     14.26312        -0.107313     -0.356760      1.732698
Ti       5.49878     13.09280      2.13290         0.048094      0.812419      0.623112
Ti       5.57876     13.13577     14.42121         0.066433     -0.066393      0.939042
Ti       5.60270      1.85551      6.21543         1.521673     -0.593097     -0.243115
Ti       5.62396     13.04917      6.22407        -0.166628      0.833848     -0.252914
Ti       5.63556      1.78330     10.34176        -0.602007      0.665691      0.246399
Ti       5.57903     13.07079     10.35312        -0.191779      0.491544     -0.075742
Ti       5.64072      5.61670      2.06688         0.101451      0.138705      0.586476
Ti       5.63857      5.72729     14.46807        -0.583256     -0.657810     -0.930196
Ti       5.57419      5.60492      6.19164         0.290144      0.410670      0.475760
Ti       5.62282      5.67084     10.16794         0.094531     -0.884587      0.851108
Ti       5.50999      9.41551      2.19612         0.574793      0.007635      0.341939
Ti       5.66666      9.44753     14.32946        -0.338804     -0.411271      0.159376
Ti       5.71927      9.34776      6.18183        -1.962962     -0.106780      0.125908
Ti       5.65710      9.29892     10.26333        -0.739477      0.532162      0.470545
Ti       9.34926      1.88785      2.17876        -0.150313     -0.083426      0.092007
Ti       9.36589      1.94724     14.34622         0.992567     -0.493196     -0.179560
Ti       9.34572     13.22739      2.17760         0.380863     -0.259171     -0.251698
Ti       9.33669     13.22827     14.45564         0.051471     -1.116872     -0.164965
Ti       9.41206      1.90596      6.20699        -0.999468     -0.325737      0.929792
Ti       9.41970     13.21721      6.16633        -0.390815     -0.943122      0.869070
Ti       9.29097      1.89372     10.23347         1.082035     -0.764979      1.352419
Ti       9.27492     13.10495     10.25432         0.409080      0.930795      0.175657
Ti       9.37748      5.66651      2.18000        -0.008318     -0.096614     -0.246800
Ti       9.37774      5.66241     14.32907         0.182352     -0.845102      0.858731
Ti       9.29507      5.65262      6.15559        -0.298823      0.133093      0.809402
Ti       9.38300      5.60565     10.18589        -0.487697     -0.287604      0.189639
Ti       9.28935      9.45739      2.19826        -0.063009     -0.551514     -0.472799
Ti       9.44428      9.39902     14.41265        -1.059683      0.793999      0.604989
Ti       9.34694      9.43205      6.17762        -0.517020     -0.484582      0.014845
Ti       9.38465      9.33981     10.41401         0.170971      0.073307     -0.845389
O       2.02152      1.89573      0.34179        -0.163901     -0.003393     -0.761626
O       1.85873      1.89403     12.67933         0.090577      0.017131     -0.152800
O       1.64302     13.13977      0.21269         0.381166     -0.179075      0.604756
O       1.77494     13.11618     12.54887         0.379256     -0.045899     -0.273497
O      13.07081      1.78584      0.27075        -0.031875      0.466215      0.119330
O      13.07197      1.87793     12.51180         0.035238     -0.141257      0.504125
O      13.28261     13.23196      0.29609        -0.065689     -0.357134     -0.898841
O      12.94009     13.08962     12.58842        -0.003398     -0.116302     -0.756163
O       1.81328      1.91330      4.42338         0.122081      0.008593     -0.230249
O       1.77163     13.12878      4.40212         0.390869      0.151683      0.019848
O      13.12630      1.97052      4.41013         0.313501     -0.369978     -0.582386
O      13.07042     13.13937      4.42317        -0.078830     -0.076290     -0.305863
O       1.83997      1.88415      8.49802         0.014363      0.079003     -0.585724
O       1.86011     13.19314      8.41620        -0.121882     -0.067294      0.823166
O      12.98668      1.93029      8.46353         0.635827     -0.178538     -0.127377
O      13.09455     13.13579      8.44669         0.219100      0.191077     -0.237632
O       1.73745      5.76318      0.28138         0.259802      0.014716     -0.654665
O       1.86817      5.56969     12.58900         0.048648      0.184037      0.211039
O      13.13695      5.66276      0.36677        -0.173340      0.097759     -0.777178
O      13.14217      5.65575     12.66639        -0.308409      0.078165     -0.497023
O       2.01429      5.55372      4.27948        -0.077657      0.074226      0.680488
O      13.09135      5.66317      4.42074         0.148673     -0.067597     -0.166636
O       1.89524      5.66920      8.48270        -0.266125     -0.226279      0.356138
O      13.15225      5.64435      8.47830        -0.011541     -0.238218     -0.623603
O       1.94789      9.33065      0.27526        -0.392557     -0.089321     -0.747981
O       1.90861      9.49578     12.54385        -0.396719     -0.221475     -0.902657
O      12.95705      9.38461      0.41486         0.341484     -0.215957     -0.115014
O      13.10287      9.31334     12.55688         0.111465      0.531483      0.361240
O       1.75000      9.40743      4.34622         0.065234     -0.166047      0.191972
O      13.16049      9.37171      4.48777        -0.264984      0.023212     -0.117889
O       1.93245      9.25504      8.42326        -0.227543      0.582739     -0.018444
O      12.99776      9.37721      8.48044         0.378953     -0.236089     -0.074633
O       5.54436      1.79295      0.13613         0.373503      0.416295      1.245238
O       5.52865      1.89390     12.48482         0.303066      0.070745     -0.135432
O       5.52596     13.16434      0.33175         0.514325     -0.113172     -0.347045
O       5.55164     13.08959     12.66585        -0.017082     -0.026344     -1.420198
O       5.69548      1.95650      4.35866        -0.375298     -0.121308      0.683949
O       5.51951     13.05428      4.43317         0.150641      0.363274     -0.041415
O       5.60574      1.74872      8.54106        -0.031533      0.123372     -0.928609
O       5.64866     13.20980      8.54207        -0.128231     -0.150892     -0.323123
O       5.72369      5.75861      0.21271        -0.019576     -0.427686      0.474324
O       5.73901      5.70930     12.65989        -0.229521     -0.121412      0.054971
O       5.52615      5.52636      4.34318         0.113096      0.156682     -0.262840
O       5.49228      5.66513      8.40802         0.506328      0.140620     -0.042536
O       5.50363      9.41735      0.43414         0.055440      0.131718     -1.672175
O       5.57231      9.42636     12.51940         0.028229     -0.041989      0.574084
O       5.64556      9.36235      4.38957        -0.090066      0.261816     -0.384445
O       5.57450      9.28530      8.42610         0.213840      0.383814      0.705649
O       9.34989      1.95809      0.42365         0.021625     -0.004636     -1.459531
O       9.35463      1.87517     12.53130         0.264752      0.046411      0.456466
O       9.22614     13.26974      0.36117        -0.149632     -0.340786     -0.315896
O       9.33949     13.15195     12.61063         0.395719     -0.022606      0.400053
O       9.26634      1.93372      4.45520        -0.006286     -0.361979     -0.859510
O       9.56636     13.18436      4.37006        -0.345043      0.098512     -0.231725
O       9.36065      1.88778      8.48746         0.013312      0.001419     -1.331825
O       9.24587     13.11591      8.44305         0.095459      0.012327      0.440265
O       9.31548      5.60783      0.30905         0.137951     -0.047034      0.593068
O       9.25876      5.56797     12.54509         0.394407      0.352981     -0.225840
O       9.29338      5.73452      4.36334         0.039089     -0.116312      0.131920
O       9.34359      5.67391      8.36185         0.161460     -0.182166      1.121061
O       9.39042      9.47175      0.35833        -0.162715     -0.055718     -0.016078
O       9.29238      9.41990     12.61560         0.640699     -0.019186     -0.367717
O       9.18841      9.30778      4.39913         0.327932      0.448803      0.059314
O       9.33214      9.39626      8.56722        -0.009446     -0.199668      0.125825
O       3.77880      1.94193      2.47901         0.339431      0.367900     -0.013705
O       3.80874      1.81148     14.66091        -0.360408      0.098682     -0.209019
O       3.65521     12.92594      2.44719        -0.220142      0.611054     -0.315894
O       3.72596     13.21196     14.68067        -0.757115     -0.109075     -0.122409
O      15.00740      1.86959      2.32788        -0.123481      0.047131      0.266744
O      15.00954      1.94237     14.70213        -0.242804      0.102746      0.044667
O      14.98533     13.29278      2.49542         0.249031     -0.392957     -0.261117
O      14.93658     13.06793     14.49737         0.157579     -0.205112      0.334098
O       3.78547      2.10396      6.46677        -1.574145     -0.432308     -0.211171
O       3.71936     12.95137      6.50400         0.587326      0.248821      0.214803
O      14.98330      1.81175      6.56663        -0.020941     -0.129156     -0.060625
O      14.98259     13.14464      6.52271         0.282234      0.656027     -0.033827
O       3.72121      1.90218     10.52990        -0.182890     -0.263973      0.318876
O       3.69694     13.13698     10.61104        -0.264102     -0.103732      0.002608
O      14.97782      1.86719     10.59472        -0.903508      0.177203     -0.102380
O      14.92586     13.18534     10.57844         0.044729     -0.159306      0.126586
O       3.79792      5.71788      2.08945        -1.097737     -0.447542      0.257567
O       3.75698      5.72689     14.78078         0.578935      0.036672      0.104328
O      14.96640      5.62976      2.50331         0.670811      0.079699     -0.352957
O      15.00433      5.64278     14.66537        -0.287789      0.016461      0.228735
O       3.73473      5.46275      6.50542        -0.270782     -0.231905     -0.250496
O       0.02303      5.79441      6.39837        -0.346592      0.026938      0.263697
O       3.79414      5.58946     10.62186        -0.629387      0.131111      0.222898
O       0.01291      5.59360     10.59998        -0.552144      0.168104      0.003026
O       3.63704      9.40819      2.49384        -0.102328      0.157814     -0.204746
O       3.73440      9.39288     14.61334         0.708411     -0.243869      0.129102
O      14.92547      9.32697      2.39469         0.000616     -0.301822     -0.224438
O      15.00965      9.36820     14.69230        -0.635333      0.241402      0.074971
O       3.70816      9.48778      6.38089         0.702865      0.217321      0.256888
O       0.01497      9.25232      6.59331        -0.770425     -0.017512     -0.176381
O       3.73481      9.34862     10.50604         0.354594      0.533449      0.272248
O      14.99630      9.23867     10.41547         0.017603      0.274416      0.438625
O       7.41964      1.72068      2.39163         0.507156      0.046606     -0.098584
O       7.52758      1.99762     14.52923        -1.065178      0.137391      0.435658
O       7.44860     13.27025      2.54304        -0.280536     -0.439091     -0.559555
O       7.45215     13.09447     14.68171         0.338073     -0.046246      0.308923
O       7.48347      1.73045      6.57082         0.056552      0.035681      0.028188
O       7.50926     13.30491      6.37933        -0.126397     -0.001424      0.031263
O       7.48457      1.82860     10.60157        -0.595021     -0.150063      0.160628
O       7.41559     13.11620     10.72988         0.755093      0.409838     -0.234214
O       7.49465      5.73931      2.45526        -0.369052     -0.145991     -0.577386
O       7.52969      5.53292     14.73874        -0.082278      0.452702     -0.237330
O       7.40962      5.70644      6.53514         0.632431      0.164517     -0.154931
O       7.52052      5.72170     10.44095        -0.511112      0.250945      0.143065
O       7.41165      9.38506      2.35712         0.289675      0.026917      0.170759
O       7.50974      9.59708     14.70979        -0.179670     -0.410603      0.032138
O       7.45182      9.41102      6.60772         1.599101     -0.695928     -0.017596
O       7.47113      9.25747     10.73146         0.078799      0.000103     -0.629325
O      11.20078      1.90738      2.51082         0.801098      0.221609     -0.132665
O      11.29785      1.73787     14.65370        -1.179399      0.325441     -0.030699
O      11.27826     13.05015      2.14047        -0.396811      0.114560      0.693608
O      11.21230     13.21421     14.87581        -0.332141      0.049112     -0.473145
O      11.26879      2.05243      6.41048        -0.387405      0.103905      0.204422
O      11.26944     13.03330      6.56240        -0.195570     -0.024981     -0.003434
O      11.17562      1.91968     10.51594         0.743444      0.230485      0.508534
O      11.16923     13.02468     10.42094        -0.073160     -0.339565      0.477689
O      11.21981      5.61320      2.52117         0.061994     -0.101031     -0.475950
O      11.21057      5.67789     14.73830         0.334100      0.293387     -0.056208
O      11.22570      5.57908      6.38870        -0.546890     -0.128260      0.440833
O      11.27567      5.52622     10.49847        -0.839761      0.181923      0.401624
O      11.14787      9.44999      2.52922         0.924624      0.326279      0.182573
O      11.22845      9.34477     14.77419         0.531408      0.023712     -0.408031
O      11.20537      9.44005      6.50724        -0.417757      0.067614     -0.193350
O      11.25095      9.41471     10.61030        -0.526062      0.404403      0.322827
O       1.90061      3.79039      2.27070        -0.165994     -0.316622      0.099217
O       1.92211      3.79094     14.82202         0.119557     -0.076662      0.046875
O       1.93645     15.00772      2.38744         0.248407      0.169391      0.096726
O       1.81587      0.02992     14.72969        -0.059422     -0.601206     -0.268414
O      13.09996      3.74928      2.40449        -0.102894     -0.103037     -0.113673
O      13.04629      3.76839     14.73631         0.127399     -0.159573     -0.155435
O      13.09359      0.01484      2.44463        -0.224834      0.191932      0.176221
O      13.19042     14.98093     14.65116         0.070882      0.412457     -0.192800
O       1.67348      3.77662      6.56282         0.176491     -0.496458     -0.080727
O       1.95956      0.06535      6.50684        -0.004855     -1.006166     -0.134105
O      13.23336      3.80900      6.43749         0.209293      0.033483      0.767738
O      12.98639      0.05611      6.40041         0.286307     -0.683622      0.341805
O       1.91082      3.75335     10.62180        -0.546331     -0.229729     -0.179274
O       1.70102     14.99470     10.60776         0.913599      0.387945     -0.080855
O      13.10191      3.74208     10.64228         0.294866      0.065334     -0.449558
O      12.93654     14.96905     10.51052         0.405719      0.783578      0.168423
O       1.77612      7.49682      2.44872         0.433059      0.250567     -0.334532
O       1.86637      7.51446     14.52319        -0.278882      0.558602      0.363520
O      13.00037      7.48406      2.49254         0.181694      0.699957     -0.188216
O      13.09307      7.57012     14.77091         0.032118     -0.818367      0.020282
O       2.04757      7.45524      6.40261        -0.362836      0.770562     -0.377963
O      13.00894      7.47563      6.53338        -0.045804      1.325365      0.359425
O       1.86564      7.51829     10.58294         0.201469     -0.662258      0.482792
O      12.99839      7.50726     10.62444         0.285741     -1.029167     -0.061935
O       1.69716     11.24637      2.37372        -0.174833      0.198110     -0.253407
O       1.85640     11.24572     14.60385         0.101847      0.797786      0.363899
O      13.22434     11.27409      2.42736        -0.284409      0.114177      0.009477
O      13.02615     11.25583     14.81845         0.156799     -0.242695     -0.531388
O       1.75828     11.25530      6.50093        -0.103739     -0.449242     -0.023918
O      13.17955     11.22209      6.54750         0.072491      0.371468     -0.215674
O       1.77787     11.24396     10.44185        -0.070314      0.350950      0.310286
O      13.19717     11.23917     10.48586        -0.260864      0.111370      0.636522
O       5.73192      3.75828      2.15887        -0.306577     -0.263030      0.206813
O       5.55143      3.80142     14.65165         0.072281     -0.143466      0.130238
O       5.36589     14.98862      2.39434         0.406929      0.174090     -0.089232
O       5.68438      0.03515     14.58045         0.038597     -0.012427      0.031300
O       5.69018      3.72577      6.57582         0.345094      0.064135     -0.232730
O       5.45038     14.98663      6.38576        -0.242569      0.172870      0.414197
O       5.62722      3.77296     10.47269         0.283393     -0.290000      0.414930
O       5.53229     14.99691     10.65840         0.160134     -0.855936      0.211474
O       5.48981      7.52021      2.33584         0.510925     -0.164078      0.395787
O       5.76956      7.60708     14.70354        -0.098866     -0.439960     -0.047524
O       5.51081      7.49230      6.41784        -0.022912      0.142951     -0.163870
O       5.50165      7.48671     10.63183         0.485749      0.231382     -0.142821
O       5.56386     11.28964      2.52184         0.559498     -0.769434     -0.269403
O       5.53136     11.25865     14.73109        -0.034631      0.351576      0.130811
O       5.75354     11.23789      6.55324        -0.480041     -0.015107      0.128184
O       5.64559     11.23120     10.55354        -0.238808     -0.620370     -0.059918
O       9.30469      3.77002      2.56532        -0.299402      0.209003     -0.546278
O       9.45373      3.76680     14.59331         0.183018      0.311738      0.575680
O       9.49377      0.03044      2.46473        -0.267116     -0.258845      0.253129
O       9.21072      0.07191     14.74017         0.303036     -0.389658      0.008221
O       9.16000      3.77548      6.44127         0.299877     -0.014392      0.042456
O       9.53029      0.00850      6.50110         0.066265      0.590475      0.080743
O       9.21822      3.75330     10.49991         0.346535      0.583135      0.189636
O       9.38200     14.99575     10.55823        -0.212747     -0.498054      0.032837
O       9.42025      7.56236      2.36663        -0.181205     -0.416835     -0.126502
O       9.27248      7.54265     14.67580        -0.177195     -0.482202     -0.011074
O       9.34585      7.54162      6.55227         0.067936      0.059958     -0.118100
O       9.44695      7.48591     10.63930         0.064988     -0.666875     -0.104623
O       9.28006     11.33352      2.52337         0.035622     -0.218715     -0.316271
O       9.41788     11.32688     14.73939         0.144752     -0.169133     -0.027718
O       9.24648     11.30865      6.46246         0.137276     -0.454317      0.070008
O       9.22752     11.22554     10.54714         0.198532      0.433392      0.479267
