  # total energy = -7866.62579976 
CRSYTAL
PRIMVEC
    15.010000000000000    0.0000000000000000    0.0000000000000000
     0.0000000000000000   15.010000000000000    0.0000000000000000
     0.0000000000000000    0.0000000000000000    16.400000000000000
PRESSURE
18.8694 19.0806 10.4805 0.235728 -0.130629 0.014046
PRIMCOORD
320 1
Pb       3.80007      3.86002      4.13669        -0.487161     -0.187203      0.019944
Pb       3.78082      3.69874      0.07945        -0.594955      0.018625     -0.059673
Pb       3.66833      0.03529      4.06236         0.309865     -0.262930      0.252267
Pb       3.64442     14.93192      0.00440         0.057506      0.371323      0.679591
Pb       0.00433      3.65771      4.01166        -0.174983      0.432579      1.043083
Pb       0.07501      3.69976     16.37572         0.115825     -0.029283      0.798478
Pb       0.05979     14.97234      3.98363        -0.499833      1.101494      1.542611
Pb      14.93692     14.94270      0.07218        -0.006613      0.212039     -0.506504
Pb       3.82876      3.78247      8.21822        -0.490807     -0.497868      0.207150
Pb       3.68983     14.91239      8.15009         0.165043      0.172811      0.676522
Pb      15.00403      3.75981      8.25369         0.172320     -0.027681     -0.168517
Pb      14.98480     15.00856      8.17934         0.408690      0.010965      1.415551
Pb       3.59185      3.77963     12.29950         0.578392     -0.006362      0.232899
Pb       3.75000     14.99468     12.31991         0.004412      0.111385     -0.241245
Pb      15.00315      3.64900     12.35400        -0.508785      0.567053      0.143361
Pb      14.98935     14.97597     12.38496        -0.348324     -0.470669     -0.444802
Pb       3.74155      7.41139      4.02225         0.023570      0.135867      1.034839
Pb       3.70599      7.37935      0.03368        -0.124046      0.379102      0.360869
Pb      14.95004      7.44491      4.10017         0.196329     -0.174568      0.304427
Pb       0.00779      7.51335     16.36963         0.021038      0.060734      0.562554
Pb       3.74332      7.46013      8.07879        -0.152819      0.119683      0.576855
Pb      14.93695      7.46453      8.27178         0.468602      0.115138     -0.698325
Pb       3.77021      7.62754     12.27258        -0.348835     -0.903716      0.035952
Pb       0.04018      7.44887     12.39402        -0.105782      0.150787     -0.394815
Pb       3.71739     11.33870      4.16256        -0.049680     -0.606922     -0.089523
Pb       3.75850     11.21900     16.32150        -0.269587     -0.102846      0.986012
Pb       0.03146     11.29928      4.05509        -0.507612     -0.568361      1.146576
Pb      14.96088     11.23263     16.39260         0.242182     -0.252080     -0.317367
Pb       3.84380     11.23378      8.16840        -0.853285      0.056332      0.351839
Pb      14.94184     11.24792      8.29761         0.589576      0.121140     -0.487722
Pb       3.76448     11.34672     12.28283         0.009179     -0.467251      0.146057
Pb       0.00962     11.25277     12.32790         0.259329      0.051101      0.268681
Pb       7.51805      3.59045      4.06604        -0.756983      0.588147      0.369178
Pb       7.47239      3.75595     16.32392         0.289199     -0.424033      0.023863
Pb       7.45154     14.95565      4.03792         0.162807      0.244651      0.247538
Pb       7.39573      0.03682      0.02617         0.818079     -0.506921      0.527376
Pb       7.48394      3.73993      8.20972         0.034371      0.145724      0.034708
Pb       7.58721     14.99022      8.18146        -0.705637      0.146056      0.383786
Pb       7.49559      3.71719     12.21809         0.081669      0.033048      1.198637
Pb       7.51741     14.92480     12.37871        -0.384415      0.180603      0.137743
Pb       7.46409      7.53258      4.01605        -0.226524     -0.266004      1.047987
Pb       7.47344      7.55373      0.03163         0.127592      0.168324     -0.381616
Pb       7.42138      7.56818      8.26794         0.300321     -0.494606     -0.156869
Pb       7.46404      7.41887     12.31788         0.342293      0.058320      0.242398
Pb       7.61305     11.31945      4.07976        -0.772369      0.105395      0.032227
Pb       7.55395     11.20660      0.00794        -0.397348      0.625486      0.348753
Pb       7.50100     11.27668      8.20483         0.336067     -0.093157      0.357146
Pb       7.49240     11.16694     12.35542        -0.147623      0.352871     -0.381938
Pb      11.20046      3.73728      4.01770         0.640153     -0.258116      1.123403
Pb      11.17483      3.63833     16.34328         0.180866      0.199924      0.335800
Pb      11.23301      0.01840      4.06115         0.218582      0.290221      1.032949
Pb      11.09557     14.89046      0.08334         0.430646      0.207901     -0.488497
Pb      11.14503      3.75011      8.10493         0.289180     -0.158380      0.843302
Pb      11.20239      0.02634      8.19186         0.097142      0.304538      0.570484
Pb      11.29449      3.70232     12.37558        -0.647200      0.151497     -0.371191
Pb      11.22825      0.06358     12.30060         0.329262     -0.119695      0.303909
Pb      11.24093      7.45257      4.09683        -0.406022     -0.026492      0.625058
Pb      11.24147      7.53137     16.37318        -0.115493      0.131775      0.348042
Pb      11.18624      7.49690      8.23838         0.173160     -0.117137     -0.181110
Pb      11.35715      7.52713     12.31442        -0.518559     -0.567143      0.015195
Pb      11.38555     11.19367      4.10762        -0.331104      0.621969      0.839318
Pb      11.33531     11.18496      0.03799        -0.282076      0.311130     -0.252063
Pb      11.21500     11.15445      8.21451        -0.278543      0.314475     -0.123198
Pb      11.26637     11.29494     12.29231        -0.134072     -0.161892      0.346656
Ti       1.84309      1.84645      2.20600         0.102557      1.462551     -1.594670
Ti       1.87305      1.80783     14.40574        -0.302447      0.442025      0.282219
Ti       1.79660     13.09857      2.09349         2.052940      0.008714     -0.425697
Ti       1.87943     13.11144     14.38774        -1.086593     -0.675036     -0.496802
Ti      13.09806      1.82528      2.13610         0.356657      0.897046     -0.223319
Ti      13.13501      1.77307     14.50456        -0.444170     -0.183490      1.324607
Ti      13.18624     13.11766      2.18974        -1.356214      0.061109     -1.165370
Ti      13.12646     13.11073     14.41777         0.126015      0.189617      1.680746
Ti       1.85011      1.85917      6.22636        -0.277147      0.962687      0.184972
Ti       1.82006     13.12474      6.16084         0.129251     -0.802519      0.039312
Ti      13.11988      1.89053      6.28723        -0.042101      0.112374     -1.374464
Ti      13.15401     13.19100      6.16503        -0.296990     -1.081675      0.842509
Ti       1.74500      1.80706     10.43562         1.548002      0.263231     -0.389877
Ti       1.83485     13.14721     10.32190        -0.154397     -0.858972     -0.225116
Ti      13.09707      1.87718     10.30125        -1.192418     -1.446950     -1.120668
Ti      13.10772     13.11912     10.34339         0.743310      1.464719      0.150300
Ti       1.81905      5.65386      2.15422         0.740138     -1.197570     -0.639728
Ti       1.85530      5.60356     14.40632         0.806466      0.252109     -0.040261
Ti      13.03052      5.57687      2.14296         1.295423     -0.762787      0.710217
Ti      13.11364      5.54234     14.49230        -0.115252      1.094101     -0.507233
Ti       1.89714      5.58963      6.22744        -1.176982      0.289498     -0.037695
Ti      13.11484      5.59446      6.21104         0.601874      0.780923      1.013012
Ti       1.77512      5.64615     10.33678         0.700784      0.005498      0.748988
Ti      13.06534      5.57870     10.34900         0.079339      0.381303      0.651200
Ti       1.78235      9.37741      2.26594         0.694327     -0.414323     -1.676954
Ti       1.85644      9.34717     14.48398        -0.404296      0.186303      0.314929
Ti      13.03863      9.26810      2.15739         0.648194      1.207913      0.282546
Ti      13.08573      9.34373     14.33095         0.599375      0.944696      0.580334
Ti       1.85404      9.39994      6.15553        -0.254121     -0.440723      1.009671
Ti      13.10997      9.44005      6.26604         0.428580     -1.066968     -0.967696
Ti       1.89441      9.40228     10.35183         0.139595     -0.618448     -0.524711
Ti      13.22464      9.39540     10.28252        -0.295090     -1.117717      1.066329
Ti       5.51536      1.83347      2.15582         0.938910      0.827902     -0.444773
Ti       5.59988      1.79523     14.50210         0.182351      0.993200     -1.041463
Ti       5.54850     13.08155      2.19150         0.141651      0.606641     -1.255164
Ti       5.58210     13.12036     14.51860         1.516087     -0.810244     -0.167279
Ti       5.54238      1.78168      6.22414         0.144890      0.433061     -0.359344
Ti       5.65443     13.08525      6.20643        -0.314565      0.676666      0.059656
Ti       5.62923      1.78030     10.39090        -1.903698      0.859758     -1.095468
Ti       5.60732     13.10389     10.34521         0.275850      0.045948     -0.613958
Ti       5.72639      5.56569      2.11953        -1.587474      0.362180      1.831151
Ti       5.61051      5.58844     14.44081         0.315045      0.039656     -0.348367
Ti       5.65678      5.57811      6.20572        -0.358918      0.717778      0.144778
Ti       5.56872      5.53763     10.41251        -0.958609      0.307444     -0.916085
Ti       5.51669      9.34468      2.18490         0.020879      0.375890      0.065620
Ti       5.56906      9.34554     14.43724         0.116498      0.394796     -0.455880
Ti       5.59249      9.37659      6.23460         0.350991     -1.422529     -1.107809
Ti       5.67394      9.30499     10.33608        -0.079341      0.442093      0.453492
Ti       9.36115      1.89928      2.14872        -0.620235     -1.391811     -0.588262
Ti       9.37112      1.86526     14.42445        -0.200956      0.156919     -0.638403
Ti       9.44680     13.13543      2.20600        -1.625215      0.647191     -0.458028
Ti       9.36218     13.14315     14.37758         0.344338     -0.037085      0.637221
Ti       9.29354      1.95720      6.15792         0.810525     -1.081212      1.462693
Ti       9.42688     13.19302      6.26250        -0.159703      0.284925     -0.379715
Ti       9.28623      1.81941     10.32874         1.169551      0.896638     -0.303349
Ti       9.37574     13.14998     10.38342        -0.633296     -1.358641     -0.448035
Ti       9.32968      5.57663      2.08529        -0.032833      0.902074      0.492799
Ti       9.38459      5.70318     14.52823        -0.899328     -0.345443     -1.579190
Ti       9.38042      5.69092      6.17525        -1.088383     -0.581795      0.283854
Ti       9.30972      5.59967     10.35521         0.902699     -0.779376     -0.638242
Ti       9.36122      9.39162      2.22266        -0.199474     -0.652183     -1.484035
Ti       9.34464      9.46511     14.44237         0.061227     -1.091076     -0.018182
Ti       9.31781      9.36859      6.18447         0.308099      0.173360      1.050342
Ti       9.47097      9.34657     10.35781        -1.028287      0.511099     -0.797339
O       1.89815      1.92701      0.37468        -0.053245     -0.078797     -0.224302
O       1.64800      1.83803     12.59324         0.658552     -0.310470      1.049525
O       1.80912     13.08859      0.29654         0.087471      0.053946     -0.308448
O       1.77946     13.12465     12.56931         0.669657      0.176196      0.891320
O      13.13798      1.90921      0.33504        -0.339517     -0.113074      0.251089
O      12.99184      1.76716     12.74244         0.649256      0.281758     -0.610659
O      13.12144     13.09326      0.33254         0.255030      0.049786      1.609088
O      13.09685     13.15686     12.69528         0.329509     -0.073468     -1.854307
O       1.74990      1.88975      4.41528         0.581573     -0.391531     -0.025195
O       1.77453     13.13416      4.29427         0.434049     -0.040975      1.981846
O      13.19832      1.81850      4.44269        -0.320660      0.095007      1.355796
O      13.12355     13.07434      4.38035         0.230658      0.289894      0.298414
O       1.85012      1.71575      8.66395        -0.043328      0.734451     -0.552179
O       1.77646     13.10521      8.50707        -0.039171     -0.413326     -0.037618
O      13.10892      1.88453      8.45983         0.168985     -0.039251      0.678067
O      13.16804     13.17415      8.56418        -0.196358     -0.410396     -0.213157
O       1.87892      5.67486      0.32708        -0.090149     -0.329271      0.309556
O       1.88088      5.75689     12.58991        -0.323854     -0.541065      1.436032
O      12.98747      5.68850      0.42042         0.333701     -0.406525     -1.427591
O      13.17969      5.58852     12.66541        -0.727730      0.067284      1.121320
O       1.77318      5.54265      4.42640         0.243012      0.445901      0.001286
O      13.00616      5.64188      4.45624         0.205354      0.125586     -0.737954
O       1.79500      5.59749      8.53825         0.228590      0.057345     -0.042353
O      13.13819      5.54772      8.56783        -0.048169      0.250187     -0.145535
O       1.81778      9.33994      0.41693         0.006023      0.129913      0.277757
O       1.84239      9.31594     12.72986         0.169110     -0.154794     -1.154268
O      12.99958      9.34429      0.37500         0.069634      0.410575     -0.217802
O      13.19934      9.39527     12.53972        -0.495009     -0.144128      0.784019
O       1.94278      9.31580      4.37463        -0.889238      0.387198     -0.075349
O      12.99671      9.47410      4.38363         0.444952     -0.658959      1.197895
O       1.76998      9.42547      8.55370         0.325859      0.084873      0.443602
O      13.19491      9.26183      8.48287        -0.413752      0.707081      0.235258
O       5.52660      1.88358      0.31283         0.264634      0.109249      0.494512
O       5.64196      1.76267     12.68703        -0.143433      0.109082      0.738471
O       5.46448     13.06637      0.35023         0.310827      0.199134      0.727708
O       5.62995     13.10871     12.71435        -0.405628      0.210135     -0.227553
O       5.55958      1.88841      4.38390        -0.125169     -0.401182      0.937479
O       5.69692     13.18106      4.39038        -0.554527     -0.489596      0.375701
O       5.52351      1.71999      8.54014         0.129859      0.570046      0.658417
O       5.64191     13.13444      8.50790         0.058875     -0.243880      0.524577
O       5.86525      5.68986      0.37330        -0.481329     -0.375666     -0.977473
O       5.51745      5.63175     12.65280         0.384735      0.034093     -0.265723
O       5.49201      5.64920      4.43704         0.590394     -0.321438     -0.096029
O       5.53354      5.54602      8.57063         0.148593     -0.046437      0.248017
O       5.44795      9.41117      0.40220         0.606147     -0.239039     -0.451366
O       5.66287      9.31314     12.58638        -0.139814      0.186774      0.828968
O       5.49160      9.22437      4.41360         0.741003      0.956348      0.682641
O       5.67075      9.42639      8.54856        -0.158403     -0.275705     -0.237343
O       9.34601      1.84945      0.35108         0.235337     -0.217862     -0.460260
O       9.30650      1.72920     12.59777         0.116804      0.609628      0.324434
O       9.37376     13.17164      0.40605         0.294918     -0.160106     -0.134756
O       9.29264     13.05850     12.59131         0.159867      0.210202     -0.031723
O       9.31370      1.88551      4.39336         0.164395      0.254599     -0.685878
O       9.42334     13.28890      4.44382        -0.629912     -0.651630      0.547184
O       9.32006      1.88634      8.51146        -0.291719      0.248106      0.745186
O       9.30097     13.20227      8.55012         0.436834     -0.628031      0.274623
O       9.25926      5.56293      0.30613        -0.120232      0.433712     -0.460134
O       9.38095      5.66587     12.70766         0.051116      0.038186     -0.432557
O       9.28124      5.62252      4.39119         0.870838     -0.263470      0.590022
O       9.25839      5.47677      8.50486         0.329641      0.631982      1.182761
O       9.52673      9.54135      0.38812        -0.792010     -0.464683      0.511586
O       9.34821      9.48857     12.65426         0.130386     -0.584640     -0.555767
O       9.29195      9.23929      4.39865         0.200556      0.823601     -0.209931
O       9.40763      9.38460      8.47735        -0.026306     -0.000698      1.486179
O       3.68453      1.91990      2.45757         0.023653      0.231291      0.297404
O       3.70390      1.94650     14.82174         0.410074     -0.608848     -0.717463
O       3.63576     13.10167      2.52937         1.098353     -0.324008     -0.225857
O       3.73022     13.17844     14.67233        -0.190581     -0.374489      0.129168
O      14.99194      1.84497      2.35454        -0.105020     -0.296075      0.188746
O       0.00154      1.86798     14.83407        -0.142940     -0.275201     -0.401496
O       0.02983     13.23853      2.50157        -1.823120     -0.290710     -0.751015
O       0.01943     13.21301     14.71145        -0.606347     -0.087080      0.206134
O       3.69480      1.69606      6.60449        -0.088211      0.172391     -0.471701
O       3.68348     13.03011      6.55343         1.030962      0.877561     -0.604540
O       0.01839      2.15847      6.56104        -0.371009     -0.934643      0.022954
O      15.00836     12.75994      6.48645        -0.440661      0.708031     -0.251228
O       3.64544      1.92231     10.89519         0.650191     -0.460297     -0.948113
O       3.70441     13.19848     10.52461         0.737005     -0.085269      0.741059
O      14.89271      1.77892     10.67127         0.865109      0.223586      0.217660
O       0.00867     13.13813     10.69685        -1.243868     -0.282749     -0.140137
O       3.75077      5.55350      2.41767        -0.071657      0.157849     -0.416622
O       3.77417      5.57937     14.83627        -0.569348      0.115855     -0.104656
O      14.95789      5.63864      2.38422        -1.212415      0.652806      0.273328
O       0.01455      5.63160     14.82757        -0.978669      0.160020     -0.457062
O       3.73541      5.73827      6.46143        -0.116057      0.056076      0.484298
O       0.00002      5.39993      6.51130        -0.774602      0.711091      0.100307
O       3.65531      5.63626     10.71893         0.643193     -0.551830     -0.574691
O      14.92482      5.69040     10.75087         0.059027     -0.186957     -0.536827
O       3.66578      9.41082      2.46661         0.331069      0.331721     -0.111606
O       3.70158      9.51048     14.74168         0.905502     -0.737013     -0.252161
O      14.86824      9.23844      2.40869         1.199788     -0.107425      0.396432
O      14.97486      9.37386     14.81444        -0.540057     -0.175760     -0.206324
O       3.77998      9.34093      6.50564        -0.800210     -0.355938      0.547294
O      14.98913      9.54773      6.55821        -0.045305     -0.028007     -0.584798
O       3.80278      9.35480     10.59252        -0.968793     -0.346188      0.251745
O       0.03406      9.26048     10.72857        -0.389596      0.468814     -0.507754
O       7.41755      1.78120      2.39529         0.446269      0.307373      0.066407
O       7.53266      1.88957     14.74096        -1.223207     -0.372017      0.282481
O       7.46024     13.18042      2.38877         0.249971      0.186299      0.303231
O       7.51204     13.12423     14.80350        -0.348344      0.204043      0.006613
O       7.45143      1.86654      6.42057        -0.859838      0.342930      0.301133
O       7.54734     13.17531      6.49940        -0.857557     -0.401917     -0.117068
O       7.42758      1.92774     10.66814         0.825901     -0.612320     -0.211784
O       7.40435     13.07437     10.75662         1.295284      0.182714     -0.537066
O       7.49824      5.59205      2.71185        -0.202418     -0.163299     -1.525470
O       7.48389      5.71694     14.61255        -0.062689     -0.074275      0.659557
O       7.45631      5.50801      6.56601         0.900309     -0.155603     -0.286359
O       7.47696      5.61426     10.67158         0.048305     -0.162925      0.178879
O       7.46954      9.25831      2.37512        -0.146672      0.720492      0.019121
O       7.43880      9.39351     14.78197         0.590732     -0.105932      0.213158
O       7.44849      9.43023      6.60612         1.245844      0.109691     -0.416162
O       7.54795      9.32600     10.58785        -0.082765      0.099856      0.177341
O      11.23490      1.90399      2.47540        -0.247695     -0.018109     -0.277421
O      11.21973      1.84350     14.70856         0.425282      0.219747      0.406147
O      11.24403     13.22731      2.51849         1.573519     -0.607167     -0.627117
O      11.27979     13.17834     14.66480        -1.772218     -0.481349      0.383564
O      11.19961      1.74681      6.59126         0.937705      0.389404     -0.731197
O      11.26106     13.40959      6.51466         0.836017     -0.685982     -0.110113
O      11.19283      1.77235     10.66180        -0.046226      0.426188     -0.166195
O      11.25076     13.18250     10.79344        -0.508455     -0.722645     -0.913178
O      11.19066      5.47866      2.49465        -0.640007      0.278886     -0.325222
O      11.19954      5.70863     14.83778         1.972387     -0.583996     -0.292345
O      11.22089      5.67129      6.63411        -0.140599      0.396061     -0.474723
O      11.22751      5.58864     10.78026        -0.032456     -0.328689     -0.411485
O      11.19052      9.53444      2.52851         0.456707     -0.615664     -0.333206
O      11.21141      9.48741     14.72936         0.829684     -0.135433     -0.309538
O      11.19948      9.26816      6.65162        -0.109717      0.156635     -0.575017
O      11.31507      9.46477     10.67975        -0.256069     -0.104187     -0.415583
O       1.71991      3.78847      2.37759         0.550505     -0.938440      0.087880
O       1.87138      3.73680     14.60244        -0.306216      0.048637      0.263469
O       1.94683     14.97875      2.38514        -0.383329      0.563606     -0.013860
O       1.87470     14.97693     14.72932         0.079638      0.786865     -0.000756
O      13.10858      3.65398      2.61506        -0.074813      1.489628     -0.937259
O      13.10901      3.74696     14.81503        -0.216259     -0.407668     -0.357085
O      13.17545      0.03061      2.56991        -0.445265     -1.433004     -0.860641
O      13.01108     14.95537     14.97721         0.867396      1.009079     -0.764583
O       2.03756      3.72647      6.54230         0.245644     -0.205334      0.279984
O       1.70650     14.97135      6.57821         0.004376     -0.105345     -0.800020
O      12.98264      3.76286      6.47986        -0.293523     -0.477976      0.078538
O      13.43106     14.96910      6.56044        -0.687604      0.578874     -0.940301
O       1.68600      3.75493     10.80163         0.399093     -0.040929     -0.772928
O       1.79827     14.94015     10.68972         0.257328      1.136539      0.257962
O      13.13556      3.64222     10.71637        -0.214429      1.871408      0.132329
O      13.11138     15.00962     10.69425        -0.018845     -0.554079     -0.069373
O       1.92058      7.47371      2.52590        -0.756714      0.613517     -0.320341
O       1.89896      7.47306     14.85910         0.031479      0.099475     -0.524043
O      12.90086      7.46388      2.49720         0.287988     -0.331285     -0.206465
O      13.04488      7.55994     14.79927         0.224197     -1.194603     -0.538950
O       1.74370      7.53050      6.55879        -0.046284     -0.554088     -0.072072
O      13.15914      7.56409      6.49778         0.307841     -1.477383      0.026861
O       1.84892      7.49092     10.72946         0.088785      0.595144     -0.626371
O      13.02611      7.50977     10.65529         0.174382     -0.360697     -0.411054
O       1.69711     11.26156      2.43265         0.239955     -0.628890     -0.122727
O       1.80694     11.23494     14.62375        -0.073154      0.779825      0.537743
O      13.25839     11.28243      2.50126        -0.730629     -0.210719     -0.835973
O      13.14369     11.25734     14.69697         0.098622     -0.591725      0.228742
O       2.07631     11.21884      6.36869        -0.589898      0.392215      0.157245
O      12.89927     11.24154      6.53337        -0.182133      1.399943      0.231433
O       1.91111     11.23490     10.82343        -0.298122     -0.053702     -0.846979
O      13.25093     11.24094     10.60902        -0.529370      0.279544     -0.165017
O       5.51965      3.74925      2.53777         0.989134     -0.330951     -0.741657
O       5.68641      3.70782     14.71778        -0.230564      0.354656      0.202579
O       5.43350      0.02371      2.41548         0.219002     -1.070284      0.065040
O       5.61659     14.95471     14.94525        -0.215058      0.878607     -0.814323
O       5.39079      3.73578      6.47321         0.399297     -1.173434      0.156354
O       5.54783     14.92066      6.51253         0.320581      0.470273     -0.247908
O       5.65869      3.71455     10.63384        -0.569356     -0.572202      0.289436
O       5.63630      0.01678     10.78035        -0.376494     -1.514950     -0.241742
O       5.51218      7.44336      2.52990         0.622370      0.330674     -1.118536
O       5.61636      7.52418     14.78623        -0.355029     -0.218828     -0.010518
O       5.69989      7.44794      6.65665        -0.151867      0.902839     -0.234091
O       5.67857      7.39311     10.61052        -0.275707      1.611323      0.041815
O       5.61577     11.28117      2.48179         0.150371     -1.219607      0.332801
O       5.68246     11.24453     14.81466        -0.475486     -0.056498     -0.290177
O       5.64285     11.22601      6.58151        -0.080846      0.649614     -0.452831
O       5.50483     11.24194     10.64258         0.515748     -0.062608     -0.096989
O       9.26512      3.72568      2.21889        -0.081407      0.058136      1.136390
O       9.40743      3.77891     14.67916        -0.186414     -0.617920      0.253167
O       9.43507      0.05833      2.57656        -0.503249     -0.936390     -0.838811
O       9.31616     15.00011     14.70775         0.241159     -0.203620      0.312707
O       9.41761      3.77389      6.56067        -0.275012     -0.218089     -0.676224
O       9.33946      0.11260      6.73262        -0.269218     -1.153982     -1.256427
O       9.32664      3.68469     10.61390         0.199440      0.580281      0.436344
O       9.27696     14.96372     10.55212        -0.295414      0.327436      0.433410
O       9.35534      7.42676      2.38697         0.481624      1.188539     -0.187556
O       9.40982      7.57301     14.78750        -0.388110      0.468972      0.210331
O       9.24176      7.51391      6.52058         0.113404     -0.231043      0.146438
O       9.41157      7.44215     10.54662         0.232989      1.152151      0.341386
O       9.34748     11.28936      2.53145        -0.279212     -0.327995      0.032310
O       9.31225     11.27655     14.74207         0.171155      0.749809      0.240078
O       9.47766     11.28348      6.53026        -0.126836      0.171104     -0.347162
O       9.30029     11.23561     10.64747         0.479101      0.175266     -0.301976
