  # total energy = -7879.58507956 
CRSYTAL
PRIMVEC
    15.6000000000000000    0.0000000000000000    0.0000000000000000
     0.0000000000000000   15.6000000000000000    0.0000000000000000
     0.0000000000000000    0.0000000000000000    17.640000000000000
PRESSURE
-4.0069 -3.906 -3.23243 -0.202036 0.744557 -0.033006
PRIMCOORD
320 1
Pb       3.82021      3.90149      4.33706         0.045254      0.015744     -0.066357
Pb       3.89505      3.87825     17.55043         0.065354      0.225185      0.412268
Pb       3.90235      0.09758      4.32785        -0.014565     -0.425070      0.273885
Pb       3.86437     15.53280     17.57155         0.397716      0.092220     -0.332969
Pb      15.56778      3.83417      4.39832        -0.097882     -0.088055     -0.766217
Pb      15.52662      3.92638     17.56818         0.053492      0.149134     -0.009498
Pb       0.00047      0.06329      4.42832        -0.148530     -0.147291     -0.283551
Pb      15.57814     15.54507     17.51327         0.122863      0.349350      0.231085
Pb       3.92220      3.84484      8.75480         0.020780     -0.181191      0.070411
Pb       3.94113     15.51561      8.71943        -0.309362      0.531584      0.191198
Pb      15.54461      3.91353      8.77531         0.628335     -0.606421      0.001438
Pb       0.02677     15.40518      8.73151        -0.335999      1.231357     -0.013639
Pb       3.87019      3.82864     13.27214         0.297446     -0.063358     -0.023956
Pb       3.79360     15.52346     13.14434         0.453878      0.038521      0.359777
Pb      15.51271      3.86774     13.02422         0.087083     -0.133000      0.901743
Pb      15.55782     15.57040     13.12171        -0.192591      0.082507     -0.174249
Pb       3.87329      7.74423      4.50641        -0.061096      0.254053     -0.513642
Pb       3.84501      7.70025      0.00419         0.009467     -0.115892     -0.287395
Pb      15.56002      7.91120      4.30989         0.278138     -0.458613      0.138954
Pb       0.00248      7.73387     17.57085        -0.165506     -0.297998      0.624694
Pb       3.95378      7.73986      8.68451         0.196543      0.376413      0.174967
Pb      15.52372      7.67466      8.79251         0.538023      0.405635      0.025883
Pb       3.80101      7.64048     13.15966         1.380439      0.612419      0.677878
Pb       0.06788      7.75097     13.20549        -0.368904      0.240409      0.199697
Pb       3.88655     11.74128      4.38577        -0.614982      0.122742     -1.187550
Pb       3.84334     11.71170      0.05064         0.109755     -0.127876      0.049482
Pb      15.55362     11.74394      4.37344         0.775179      0.260043     -0.431817
Pb      15.56264     11.73402     17.52371        -0.261381     -0.257892      0.650876
Pb       3.81997     11.58794      8.76245         0.604615     -0.327270      0.202042
Pb      15.56393     11.72839      8.73864        -0.194825     -0.676577     -0.278618
Pb       3.84855     11.71678     13.16112         0.178830     -0.217924      0.014915
Pb      15.50600     11.65813     13.07096         0.536379     -0.236420      0.158066
Pb       7.67567      3.93878      4.34555         0.145889     -0.384236      0.041091
Pb       7.72305      3.88891     17.55332         0.359138     -0.175585      0.129524
Pb       7.76354      0.15520      4.34855         0.153726     -0.124078      0.094609
Pb       7.83995      0.07454     17.48235        -0.263411     -0.472322      0.158737
Pb       7.68179      3.79864      8.87402         0.215532      0.057771     -0.101796
Pb       7.76118     15.51316      8.88652         0.013914      0.171454     -0.375028
Pb       7.75948      3.91519     13.20321         0.386442      0.348876     -0.340358
Pb       7.76820     15.56492     13.17772        -0.055514     -0.288859      0.118477
Pb       7.77804      7.99128      4.36704         0.251449     -0.437441      0.640260
Pb       7.72816      7.82169      0.08762        -0.313447      0.018067     -0.635449
Pb       7.74410      7.76989      8.73140        -0.062475      0.276432      0.556852
Pb       7.59160      7.80120     13.17762         0.332589     -0.314583     -0.456746
Pb       7.86362     11.80614      4.36998         0.062739     -0.311637     -0.172189
Pb       7.75145     11.62027     17.61989         0.190917      0.449841     -0.289163
Pb       7.74941     11.69427      8.75270         0.438580     -0.381778      0.641336
Pb       7.86247     11.59583     13.22524        -0.394031      0.298709     -0.725753
Pb      11.62671      3.93180      4.37749         0.729655      0.153064      0.251556
Pb      11.74254      3.87031     17.58490        -0.468104      0.208339     -0.043595
Pb      11.71675      0.17539      4.44281         0.136706     -0.429830     -0.063647
Pb      11.63806     15.56405     17.55136        -0.237130      0.074813      0.040959
Pb      11.66312      3.82578      8.75241        -0.137639      0.271991      0.322864
Pb      11.77493      0.02051      8.87687        -0.024771     -0.686458     -0.739440
Pb      11.56218      3.83761     13.18728        -0.151317     -0.065915     -0.163689
Pb      11.65707     15.46287     13.08566         0.299598      0.196511      0.215398
Pb      11.59869      7.83234      4.40451         0.271392     -0.349163      0.100863
Pb      11.46657      7.81748     17.61407         0.902293     -0.136904      0.013133
Pb      11.64523      7.77343      8.69400        -0.231591     -0.197038      0.343341
Pb      11.56655      7.73781     13.16981         0.295490      0.147450      0.118327
Pb      11.71714     11.85669      4.26676        -0.426749     -0.402067      0.827334
Pb      11.80650     11.65367     17.51649        -0.396972      0.277059      0.221090
Pb      11.73884     11.54297      8.70551        -0.229560      0.592707     -0.063560
Pb      11.67199     11.61489     13.08126        -0.072903      0.303538     -0.005694
Ti       2.00040      1.87854      2.33943        -1.253372      1.215734     -0.632342
Ti       1.96966      1.90206     15.58104        -0.234126      0.106015      0.378812
Ti       1.90614     13.77488      2.28341         0.475306     -1.855294      0.654385
Ti       1.98295     13.54294     15.71959         0.599382      0.975856     -2.091244
Ti      13.64682      1.89662      2.38366         0.840448      0.289654      0.172134
Ti      13.66261      1.97045     15.64203        -0.672414      0.201273     -0.960555
Ti      13.56120     13.58903      2.33423         0.996117      1.354555      0.978841
Ti      13.64945     13.71568     15.54363         0.084157     -0.539876      0.232823
Ti       1.93878      2.01770      6.81419        -0.354532     -1.646206     -0.876558
Ti       1.94791     13.61151      6.89579        -0.073457      0.420412     -2.748567
Ti      13.64707      1.91103      6.77614         0.994090     -1.373949     -1.125875
Ti      13.65077     13.58225      6.76256        -1.261347      0.944242      0.332221
Ti       1.98910      1.91742     11.21629         0.456578     -0.580567     -1.893696
Ti       1.90173     13.61207     11.14018         0.274932     -0.551836      0.945108
Ti      13.68492      1.92711     11.09755        -0.418640     -0.589685      0.492636
Ti      13.64803     13.64032     11.15029        -1.166621     -0.061960      0.430980
Ti       1.98951      5.89953      2.42819        -0.157778     -0.467056     -0.596324
Ti       1.95177      5.77358     15.55735        -0.119874      0.664491     -0.812841
Ti      13.67438      5.81792      2.40506         1.406034     -0.253804      1.089706
Ti      13.52266      5.92640     15.62002         0.477784     -0.128140      1.321887
Ti       1.97509      5.82529      6.73252         0.571898     -0.061607      0.237703
Ti      13.66969      5.73775      6.96699        -0.557325      0.466018     -3.374623
Ti       2.00618      5.72133     11.27224         0.185566      0.952112     -0.074952
Ti      13.67348      5.83134     11.17807        -0.617173      0.461135     -0.260474
Ti       1.95378      9.72815      2.39208         0.730201      1.318922     -0.226878
Ti       1.92088      9.68313     15.61830        -0.055383     -0.308564      0.038485
Ti      13.61750      9.72117      2.41602         1.282937      0.447984     -0.716781
Ti      13.64743      9.71273     15.65714        -0.748748     -0.625996      0.075953
Ti       1.98263      9.65809      6.81931         0.063078     -0.043663     -0.660534
Ti      13.70455      9.62099      6.76515         0.195958      0.956470      0.351715
Ti       1.97651      9.59771     11.19149         0.813288      1.286728     -0.462502
Ti      13.66601      9.69088     11.07398        -0.144034      0.082394      0.241251
Ti       5.77205      1.97183      2.33847         0.405469      0.293260      0.182575
Ti       5.81450      1.97540     15.51101         0.283989     -0.611518      1.206676
Ti       5.92003     13.63478      2.34823        -1.708926     -0.098157     -1.439781
Ti       5.91482     13.58987     15.65678         0.437036      1.058629     -0.626753
Ti       5.85395      1.91116      6.74493         0.111603     -0.386711      0.202416
Ti       5.88620     13.62731      6.78352         0.156019      0.621516     -0.552443
Ti       5.90309      2.01668     11.27544        -1.016514     -0.316349      0.419395
Ti       5.76370     13.75048     11.19618         1.570079     -0.989657     -0.129722
Ti       5.95548      5.88385      2.41495        -1.892758     -0.562900     -0.899912
Ti       5.89054      5.86640     15.65339         0.067451      0.367389     -1.022452
Ti       5.85639      5.83805      6.77659         0.245606     -0.354884     -0.477332
Ti       5.83000      5.79938     11.11915         1.223490      0.845036      1.088207
Ti       5.87112      9.73547      2.45993        -0.156411      0.533580      0.229890
Ti       5.80364      9.73884     15.55776         0.372966     -0.570445     -0.210666
Ti       5.92492      9.81803      6.73172        -0.560691     -1.108233     -0.169211
Ti       5.85480      9.80637     11.20049         0.225612     -1.183625     -1.420284
Ti       9.80297      2.10753      2.35185        -0.369022     -1.583256     -0.562287
Ti       9.77078      1.95883     15.61931        -1.361000      0.114588     -0.515975
Ti       9.73035     13.72911      2.35307         0.535332     -0.656614     -1.422127
Ti       9.82554     13.59375     15.57884        -1.438308     -0.216826      0.331394
Ti       9.74804      1.91290      6.91797        -0.499293     -0.519962     -1.624901
Ti       9.81044     13.62916      6.88238         0.450260      0.003854      0.229889
Ti       9.79190      1.83818     11.21420        -0.629749      1.048546      1.286461
Ti       9.66107     13.64317     11.13065         1.031791     -0.813208     -1.273656
Ti       9.77622      5.87147      2.35143         0.275710     -0.274646     -1.167759
Ti       9.73300      5.81268     15.58939        -0.188439     -0.528241     -0.090909
Ti       9.68934      5.76930      6.88182         0.266433      0.353156     -0.572136
Ti       9.76312      5.79289     11.18880        -1.028562      0.171129     -0.850316
Ti       9.75388      9.77581      2.35721         0.163578     -0.090128      1.452638
Ti       9.68938      9.70426     15.53157         0.998747      0.070055      0.535665
Ti       9.76906      9.69276      6.80863         0.170443      0.851074      0.218924
Ti       9.78938      9.70358     11.14517        -1.056289     -0.430326     -0.116739
O       1.91697      1.93256      0.54257         0.193155     -0.324964      0.255995
O       1.98896      1.99057     13.84529        -0.167866     -0.608077     -0.821753
O       1.84886     13.67438      0.50660         0.336446      0.200472     -0.738824
O       2.25533     13.55229     13.91391        -0.995670      0.269914      0.429987
O      13.68074      1.94845      0.62160        -0.059908      0.026096     -0.639300
O      13.54087      1.98103     13.88386         0.419087     -0.087572      0.246168
O      13.73169     13.50402      0.60826        -0.183262      0.280483     -0.790202
O      13.55280     13.67743     13.80491         0.463128      0.173624     -0.417339
O       1.98999      1.92014      5.01898         0.087968      0.024395      0.870282
O       1.95808     13.66401      5.09004         0.209241     -0.255378      1.511750
O      13.61554      1.78586      4.95177         0.022182      0.619682      1.022458
O      13.60340     13.69057      5.04349        -0.126112     -0.417495     -0.881431
O       1.98584      1.83575      9.43594         0.121778      0.685009      1.189315
O       1.82587     13.54062      9.41387         0.062095      0.028571     -0.617264
O      13.68427      1.88371      9.37941        -0.039212      0.266489     -0.696444
O      13.72716     13.62619      9.43404        -0.014904     -0.267832     -1.054806
O       2.01564      5.87741      0.63127         0.096639      0.060782      0.836349
O       2.02469      5.83781     13.73017        -0.279384      0.144102      0.573053
O      13.73243      5.78491      0.71499        -0.017427     -0.350022     -1.719695
O      13.56627      5.95258     13.90528         0.122123      0.022567     -0.951289
O       2.08572      5.85910      4.98371        -0.319514     -0.239705      0.035433
O      13.62796      5.70646      5.12420         0.224667      0.290747      1.868913
O       1.98495      5.70514      9.54538        -0.104860      0.355628     -0.381570
O      13.83655      5.78738      9.40508        -0.280657      0.059914     -0.199359
O       2.11520      9.81208      0.62336        -0.204343     -0.245443     -0.051768
O       1.76523      9.67194     13.88025         0.187724      0.291110      0.143846
O      13.69085     10.02605      0.68177        -0.252541     -0.180973      0.096706
O      13.55233      9.48768     13.91175         0.373288      0.589615      0.580214
O       2.01275      9.56702      5.06031         0.212602      0.454963      0.111082
O      13.76389      9.64315      5.03151        -0.000863     -0.056370     -0.649242
O       2.13362      9.62314      9.41680        -0.303653     -0.129588      0.477106
O      13.59749      9.86885      9.30402         0.255253     -0.634877      0.723240
O       5.76017      2.18487      0.59857         0.042120     -0.393717      0.102042
O       5.67315      2.00527     13.77902         0.605401     -0.148265     -0.331101
O       5.93188     13.52595      0.55028         0.044107      0.218435      0.866450
O       5.95869     13.63242     13.89424        -0.167174      0.146486     -0.361861
O       5.86552      1.76076      4.97536         0.226254      0.281098      0.528595
O       5.85076     13.81466      4.99538        -0.055626     -0.853170      1.013097
O       5.89987      2.06673      9.54956        -0.152806     -0.172166     -1.478869
O       5.79815     13.76093      9.44571         0.400500     -0.332084     -0.383125
O       5.72066      5.74440      0.64101         0.434239      0.386921      0.666112
O       5.99139      6.02079     13.84127        -0.454125     -0.648053      1.422119
O       5.85028      5.75967      5.02325         0.313705      0.199856     -0.109333
O       5.85039      5.66989      9.37636        -0.093397      0.110344     -0.780811
O       6.04724      9.77101      0.70804        -0.185836     -0.115309     -0.792295
O       5.95232      9.52606     13.79352        -0.150006      0.667947      1.131283
O       5.97838      9.69973      4.90100         0.001555      0.407765      1.469193
O       5.90038      9.69213      9.37961        -0.341130      0.264242      0.911671
O       9.74267      2.02090      0.60079         0.176412     -0.261057      0.320565
O       9.57811      1.99980     13.84052         0.687584     -0.072576     -0.116358
O       9.83307     13.68714      0.58435        -0.254095      0.099666      0.450641
O       9.69817     13.55864     13.82823         0.287375      0.301176     -0.369186
O       9.72082      2.01674      5.13030         0.160385     -0.064421      0.492536
O       9.88594     13.45239      5.16256        -0.300110      0.187228     -1.148164
O       9.69061      1.88606      9.50928         0.299630     -0.047716     -1.594182
O       9.84454     13.64655      9.32546        -0.647381      0.235418      0.761648
O       9.96904      5.87541      0.58878        -0.515077      0.017668      1.031569
O       9.71903      5.66923     13.82544         0.170581     -0.003463     -0.211930
O       9.84407      5.86376      5.11779        -0.078194     -0.348937     -0.158105
O       9.72647      5.75306      9.41922         0.313056      0.182608     -0.034586
O       9.65570      9.61335      0.65851        -0.029729      0.176349     -1.165029
O       9.82160      9.63479     13.78642        -0.330093      0.570195      0.003270
O       9.78810      9.64078      5.05592        -0.231989     -0.111684     -0.113644
O       9.85624      9.70107      9.36538         0.126299     -0.035685      0.513371
O       3.88921      1.94862      2.84128         0.322788     -0.437291     -0.326749
O       3.88236      2.09071     15.93707         0.001504     -0.709413      0.106255
O       3.88228     13.57544      2.49823         0.554511      0.289613      0.857697
O       3.97500     13.69143     15.99995        -0.675740     -0.457080      0.957104
O       0.05342      1.87659      2.85220        -0.213008     -0.096605     -0.095670
O      15.55306      1.95366     15.89902         0.423227     -0.000652      0.347692
O       0.09055     13.66306      2.76740        -0.891074     -0.101162      0.163132
O       0.04823     13.76953     15.94378        -0.679826     -0.491359     -0.206954
O       3.92470      1.73800      7.18921         0.669168      0.693103     -0.084225
O       3.82014     13.63247      7.24083         1.099618      0.022700     -0.052049
O       0.01491      1.96200      7.05002         0.271516      0.364269      0.487887
O      15.49703     13.57018      7.08124         2.116073     -0.090056      1.023167
O       3.90598      2.02296     11.69305        -0.974917     -0.445825     -0.207623
O       3.96012     13.60218     11.48415        -1.865135     -0.040608      0.557926
O       0.00261      1.79038     11.49714         0.163002      0.524836      0.770708
O      15.54502     13.66090     11.58240         1.238286     -0.126795      0.392437
O       3.98930      5.91514      2.89226        -0.623949     -0.007313     -0.132612
O       3.89530      5.78963     16.08743         0.240900      0.637761     -0.464611
O       0.13273      5.73479      2.82803        -0.174324      0.277017      0.160692
O       0.01952      5.90938     16.00720         0.100481     -0.008523     -0.049676
O       3.93842      5.73506      7.20372         0.031416      0.181845      0.008836
O       0.07954      5.86603      7.27566        -0.215354     -0.505495     -0.061444
O       3.97025      5.86849     11.59734        -1.253933     -0.401528     -0.043306
O      15.54653      5.91646     11.67462         0.556247     -0.395966     -0.172374
O       4.03380      9.62803      2.86018        -0.702497      0.238523      0.010890
O       3.96128      9.74842     15.93325        -0.287725      0.265310      0.078444
O       0.10763      9.75889      2.86688        -0.816241      0.363350     -0.097841
O      15.49850      9.54031     16.15313         1.030406      1.180096     -0.837762
O       4.01947      9.69924      7.20612        -0.238953     -0.185176     -0.148404
O       0.11359      9.67992      7.12516        -0.836154     -0.198581      0.583579
O       3.95832      9.76032     11.69753        -1.116913     -0.329528     -0.288144
O       0.01872      9.60764     11.53705        -0.173389      0.684998     -0.107843
O       7.88298      1.92926      2.88154        -0.210873      0.505268     -0.500889
O       7.74730      1.96524     16.05311        -0.032501      0.187209     -0.321856
O       7.76127     13.63241      2.77456         0.849899      0.031986      0.236702
O       7.87699     13.73066     16.02366        -0.188988     -0.429214      0.154807
O       7.77831      1.84905      7.26501         0.434949      0.299441      0.109341
O       7.80810     13.43859      7.21198        -0.480114      0.868372     -0.288955
O       7.72271      1.89632     11.54915         1.428726     -0.041763      0.650144
O       7.85073     13.76566     11.55063        -0.807284     -0.280613      0.096679
O       7.82360      5.66587      2.53355         0.923371      0.069731      0.674190
O       7.84738      5.84732     16.13328        -0.272369      0.053290     -0.139050
O       7.80751      5.90776      7.17329        -0.221930     -1.026290      0.099491
O       7.79378      5.71140     11.50830        -0.203824      0.596355      0.235313
O       7.88112      9.83338      2.94752         0.316050     -0.467103     -0.407439
O       7.84721      9.70971     16.05556        -0.292992     -0.195116     -0.181535
O       7.80646      9.81357      7.28198         0.054123     -0.436184     -0.680115
O       7.80661      9.64138     11.58111         0.686605      0.448418      0.112593
O      11.74150      2.02926      2.79805        -0.698372     -0.564404      0.055718
O      11.57516      1.97026     15.98086         2.044637     -0.181270      0.342704
O      11.67873     13.54844      2.68461         0.309035      0.119815      0.136074
O      11.73052     13.69073     15.93947         0.288018     -0.249047      0.294737
O      11.78404      1.86868      7.19029        -0.838769      0.547253      0.491727
O      11.74977     13.83342      7.22278         0.207659     -1.113557      0.324131
O      11.68987      1.85468     11.56997         0.252708      0.630102     -0.013594
O      11.65651     13.66653     11.50178         0.420397     -0.539179      0.470743
O      11.89835      5.75257      2.83322        -2.403630      0.624205      0.211299
O      11.63491      5.84811     16.01378         0.975866     -0.394278      0.080348
O      11.70111      5.75580      7.31016         0.686141      0.435823      0.179893
O      11.75245      5.84542     11.55926         0.303929     -0.681925      0.042091
O      11.82537      9.58752      2.80573        -1.690876      0.691015     -0.048481
O      11.63881      9.80340     16.12242         0.610302     -0.401536     -0.360808
O      11.76990      9.70376      7.01301        -0.400959     -0.404235      0.714633
O      11.66660      9.71505     11.67164         0.554441      0.450000     -0.613987
O       2.05022      3.72891      2.71487        -0.122543      1.764369      0.398284
O       1.98807      3.96690     15.75520        -0.543826     -1.255206      0.887650
O       1.99256     15.58248      2.83958         0.193893      0.096809     -0.359335
O       1.94134     15.54794     16.00675         0.470107      1.170260     -0.009488
O      13.74842      3.80945      2.77532         0.155185      0.371594      0.390273
O      13.64204      3.98709     15.99880        -0.033978     -0.740034      0.303845
O      13.62528     15.56423      2.83296        -0.156838     -0.258891     -0.347034
O      13.56841      0.00718     15.97983         0.391232      0.304720      0.182062
O       2.04202      3.85475      7.24798        -0.285765      0.560768     -0.152233
O       1.87714      0.03748      7.34345         0.200078     -1.402098     -0.445974
O      13.75880      3.84001      7.17950        -0.413063      0.424008      0.568932
O      13.76376      0.01950      7.14675        -0.106768     -0.356137      0.531606
O       1.91946      3.87592     11.58636        -0.239640     -0.394972      0.263621
O       2.00996     15.53502     11.51166        -0.165407     -0.284608      0.639772
O      13.71622      3.83486     11.48370        -0.074453      0.569609      0.166456
O      13.61405     15.55634     11.43322         0.140989      0.285702      0.884030
O       1.97624      7.85722      2.80214         0.147991     -1.305658      0.021774
O       2.01870      7.82214     15.94940         0.076679     -0.291318      0.402153
O      13.81781      7.85583      2.62719         0.006508     -0.911002      0.471899
O      13.57640      7.78843     16.38887        -0.265720      0.004084     -1.307797
O       2.06797      7.68391      7.08821         0.082063      0.234051      0.739255
O      13.71462      7.75270      7.28903        -0.150545     -0.212744     -0.041417
O       2.04918      7.80140     11.75578        -0.856095     -0.727918     -0.979916
O      13.63078      7.86721     11.43558        -0.096929     -1.046604     -0.081674
O       2.00765     11.69133      2.75214         0.274768     -0.205562      0.569787
O       1.90140     11.67178     16.02151         0.211564     -0.404522      0.138972
O      13.67586     11.79379      2.93391         0.235933     -1.063818     -0.215807
O      13.78414     11.74211     15.92806        -0.530385     -0.513057     -0.059850
O       2.06097     11.57961      7.17869        -0.523801      0.889631      0.213434
O      13.73749     11.63591      7.26092        -0.563439     -0.048801     -0.642364
O       1.96109     11.65003     11.67678        -0.403464      0.479640     -0.396713
O      13.66396     11.68959     11.59045        -0.072429     -0.683731      0.040893
O       5.75065      3.83755      2.93831         0.816440      0.554800     -0.197030
O       5.91262      3.95519     15.97947        -0.270982     -0.461715     -0.230281
O       5.76356      0.09900      2.67631         0.626407     -1.314215      0.066409
O       5.88678      0.02593     15.98892        -0.460056      0.688563      0.095481
O       5.92420      3.77763      7.09686        -0.225351      0.412198      0.246113
O       6.00829     15.50455      7.29114        -0.726396     -0.214021     -0.284317
O       5.81541      3.91682     11.65890         0.004246      0.070151      0.130623
O       5.87239     15.59379     11.58591        -0.535856      0.161864      0.389920
O       6.10122      7.77476      2.76381        -0.269828     -0.337386     -0.209307
O       5.92330      7.74319     16.12747        -0.273247      0.849718      0.118103
O       5.91465      7.74507      7.09430        -0.256659      0.376547      0.217215
O       5.90422      7.79433     11.51526        -0.317302     -0.904297      0.091624
O       5.87867     11.66350      2.72545         0.032835      0.828263      0.668957
O       5.96409     11.72388     15.90814        -0.096338     -1.665881      0.414538
O       5.82581     11.63480      7.31375        -0.196890      0.950987     -0.962626
O       5.86286     11.63332     11.63059         0.495506      1.193588      0.126846
O       9.86720      3.90963      2.65568        -0.183222      0.936141      0.702553
O       9.79803      3.84387     16.07913        -0.408744      0.657773     -0.108907
O       9.87812     15.48066      2.81053        -0.471370      1.489946      0.091860
O       9.73799     15.59250     16.08043         0.373299      0.214516     -0.323522
O       9.84496      3.87269      7.29467        -0.581983     -0.373876     -0.027811
O       9.82229     15.59652      7.06849        -0.625283      0.036920      0.827986
O       9.61575      3.87993     11.57268         1.195660     -0.880338      0.430458
O       9.81908     15.54982     11.58415        -0.620795      0.388381      0.168163
O       9.79353      7.73334      2.76757        -0.090383      0.056338      0.273869
O       9.90758      7.68646     15.84649        -0.757453      1.601316      0.395091
O       9.67738      7.76672      7.26259         0.753884      0.257383     -0.041996
O       9.83524      7.72343     11.55960        -0.319799      0.367876     -0.210772
O       9.82337     11.61108      2.70123        -0.113312      0.714053      0.356127
O       9.80823     11.66874     15.92523        -0.377690     -0.022213      0.059551
O       9.81455     11.64767      7.20276         0.243645     -0.484499      0.293349
O       9.59907     11.67999     11.51394         0.785177     -0.223461      0.357587
