  # total energy = -7865.03139526 
CRSYTAL
PRIMVEC
    15.010000000000000    0.0000000000000000    0.0000000000000000
     0.0000000000000000   15.010000000000000    0.0000000000000000
     0.0000000000000000    0.0000000000000000    16.400000000000000
PRESSURE
16.6419 16.7386 7.64161 -0.016573 -0.05087 -0.005306
PRIMCOORD
320 1
Pb       3.60051      3.62214      4.09084         0.518944      0.273705     -0.193328
Pb       3.79090      3.71370     16.30630        -0.098957     -0.096109      1.558817
Pb       3.81912     14.93085      4.17320        -0.926370      0.543319     -0.456772
Pb       3.76419      0.05740     16.34902        -0.244389     -0.042487      0.635546
Pb      14.98009      3.78747      4.24013         0.273545     -0.469723     -0.783551
Pb      14.94453      3.86051      0.05819         0.142501     -0.662836      0.508740
Pb      14.96448     14.97236      4.24027         0.521599      0.401111     -0.826270
Pb      14.98918      0.03884     16.23998         0.740790     -0.134828      1.754469
Pb       3.83572      3.68895      8.15754         0.016203      0.369133     -0.376302
Pb       3.86521     14.98395      8.34722        -0.283282     -0.221333     -0.429490
Pb       0.08520      3.68084      8.06742         0.107660      0.454618      0.756252
Pb       0.15773      0.00492      8.29823         0.068678     -0.415551     -0.288703
Pb       3.97062      3.75176     12.35273        -1.111860     -0.230733      0.235397
Pb       3.75649      0.02727     12.30836         0.260998      0.023319     -0.088122
Pb       0.00865      3.75322     12.26873         0.300963     -0.118928     -0.182170
Pb      14.93205     15.00300     12.25227         0.106681      0.064330     -0.093233
Pb       3.58105      7.68395      4.20268         0.203889     -1.008838     -0.841235
Pb       3.77248      7.53945     16.35267        -0.385618     -0.489490      0.687908
Pb      14.85575      7.51983      4.13572         0.292136     -0.082720     -0.334767
Pb      14.95457      7.46293      0.02529         0.107320      0.272377      0.720762
Pb       3.67445      7.51550      8.33738        -0.131466     -0.559074     -0.340445
Pb      14.98643      7.46189      8.07694         0.313058      0.215429      0.225096
Pb       3.78559      7.33873     12.40615        -0.120440      0.387610     -0.439559
Pb       0.09401      7.49269     12.25728        -0.289364      0.070010      0.297972
Pb       3.60954     11.23865      3.96535         0.032208      0.295064      0.102540
Pb       3.68268     11.29432      0.08056        -0.213447      0.521630      0.415743
Pb      14.81071     11.21827      4.22078         0.558132     -0.274938     -0.747941
Pb      14.96346     11.21609     16.38294         0.048122      0.007507      0.388094
Pb       3.54734     11.15806      8.25369         0.506955      0.586098      0.256336
Pb      14.92209     11.15122      8.17487         0.529205      0.029913      0.334789
Pb       3.70339     11.14005     12.48574         0.109819      0.237765     -0.511145
Pb      14.98503     11.18566     12.30258        -0.203427     -0.202998      0.138540
Pb       7.44854      3.79980      4.29326         0.118856     -0.016741     -0.823862
Pb       7.49100      3.76735      0.10966        -0.156444      0.002653      0.835186
Pb       7.45557      0.06941      4.24557         0.301323     -0.727646     -1.085223
Pb       7.58667      0.03869      0.00500        -0.077414      0.097673      0.287709
Pb       7.61703      3.82624      8.23348        -0.317794      0.107706     -0.220576
Pb       7.40796     14.79861      8.34971         0.108625      0.608659     -0.121946
Pb       7.60010      3.62310     12.39038        -0.345568      0.337916     -0.377500
Pb       7.50947      0.02949     12.29053        -0.025773     -0.260880     -0.182423
Pb       7.37601      7.46901      4.19499         0.063617      0.534482     -0.478999
Pb       7.48757      7.43024      0.10111        -0.489876     -0.024749      0.333862
Pb       7.50111      7.52083      8.09157         0.166286     -0.747921      0.891173
Pb       7.59095      7.42522     12.34040        -0.803660      0.172422      0.074986
Pb       7.14211     11.25815      4.17063         1.419521     -0.383055     -0.389705
Pb       7.41664     11.27887      0.03783         0.017958      0.028670      1.384520
Pb       7.36655     11.09576      8.29933         0.897369      0.547180     -0.474201
Pb       7.52308     11.19645     12.52074        -0.110701      0.071596     -0.922276
Pb      11.43543      3.68693      4.21907        -0.901089      0.225568      0.080236
Pb      11.30375      3.84865      0.05423        -0.378377     -0.626500      0.491080
Pb      11.28578      0.01747      4.22503        -0.259731     -0.045722     -0.682087
Pb      11.32175      0.09590     16.33261        -0.615668     -0.536300      0.813789
Pb      11.41971      3.74399      8.24918        -0.901964      0.751289     -0.503502
Pb      11.34603     14.91981      8.22580        -0.523030     -0.391155     -0.474794
Pb      11.33551      3.75961     12.29164        -0.113566     -0.055959     -0.259530
Pb      11.30984     14.86985     12.29380        -0.875304      0.095255      0.780640
Pb      11.09674      7.44705      4.14892         0.225243      0.530554      0.376203
Pb      11.23568      7.42992      0.07892        -0.238153      0.624027     -0.496643
Pb      11.22151      7.53396      8.15514        -0.364725     -0.386880      0.267019
Pb      11.23035      7.46047     12.42701         0.245111      0.118338     -0.267937
Pb      11.06315     11.35298      4.22575         0.003193     -0.955314      0.343833
Pb      11.09989     11.34944      0.02852         0.574572     -0.218895     -0.126162
Pb      11.13582     11.22191      8.20911        -0.117921     -0.507685     -0.241115
Pb      11.26505     11.17730     12.41740        -0.001851      0.094080      0.013410
Ti       1.81470      1.86633      2.04638         0.411024      0.157564      0.336836
Ti       1.81476      1.92994     14.30524         1.580611     -0.351727     -0.167197
Ti       1.76879     13.22388      2.11046         0.961954      0.069799     -0.682191
Ti       1.86799     13.15437     14.24192         0.558007     -0.092227      1.838412
Ti      13.09017      1.93012      2.17869         0.940193     -1.652473     -0.118656
Ti      13.14697      1.86733     14.36484        -0.831099      0.578818     -0.270581
Ti      13.08675     13.08773      2.03418        -0.135049      1.284279     -0.620370
Ti      13.15805     13.09646     14.47879        -1.424266     -0.819397     -0.451273
Ti       1.94091      1.84860      6.21529         0.648921     -1.116462     -1.379565
Ti       1.94553     13.08342      6.24232        -0.469439      0.683948     -1.095572
Ti      13.17638      1.81174      6.27571        -0.266619      0.429134     -1.365425
Ti      13.19424     13.03694      6.20306        -0.888586      0.517904      0.190150
Ti       1.97137      1.90075     10.30991        -1.281601      0.228918      0.425530
Ti       1.82071     13.11946     10.29754         0.989029     -0.556420     -0.044034
Ti      13.10496      1.82749     10.18743         1.513251      0.394125      1.527683
Ti      13.10245     13.02357     10.25150         0.674726      0.146734     -0.088383
Ti       1.81219      5.58747      2.03726         0.444571      0.970823      0.798456
Ti       1.87628      5.59532     14.44692         0.351203     -0.018921     -0.595552
Ti      13.02351      5.62778      2.15784         1.601186      0.729559     -0.690412
Ti      13.16556      5.60254     14.36517        -0.804169      0.567747     -0.650389
Ti       1.92056      5.57342      6.10078         0.731886      0.818472     -0.298108
Ti      13.16998      5.62292      6.21794        -0.786655      0.100112     -0.199059
Ti       1.81597      5.60798     10.22340         0.700213      0.249986     -0.592999
Ti      13.09901      5.59596     10.24582         0.318673      0.853030      0.066257
Ti       1.70270      9.38172      2.10786         0.373308     -0.845773     -0.885257
Ti       1.84361      9.34883     14.45776        -0.370095      0.377541      0.120344
Ti      12.94242      9.34325      2.07877         1.157280      0.373529     -0.250881
Ti      13.11713      9.27625     14.35594        -0.794053      0.916453      1.264606
Ti       1.79386      9.37618      6.10614        -0.727381     -0.585347      0.276139
Ti      13.00074      9.34836      6.18549         0.372282     -0.214262     -0.705023
Ti       1.89632      9.38148     10.36105        -0.323905     -0.519903     -0.538089
Ti      13.10169      9.29620     10.23594        -0.226913     -0.124577     -0.497385
Ti       5.61092      1.87772      2.20443        -0.477198     -0.212424     -0.980496
Ti       5.69950      1.89940     14.45952        -0.075684     -1.428012     -0.108084
Ti       5.58353     13.11740      2.12899        -0.146210      1.107394      0.089233
Ti       5.60702     13.17837     14.40944        -0.225381     -0.051545     -0.699945
Ti       5.74294      1.78755      6.17163        -1.806108      1.641593      0.043668
Ti       5.62510     13.09288      6.20949        -0.548726      0.005486      0.549246
Ti       5.69381      1.91087     10.25468        -0.246569     -0.674798     -0.317450
Ti       5.58503     13.01249     10.35297        -0.316619      0.858441     -0.251151
Ti       5.51876      5.61687      2.18192         0.313123     -0.480728     -0.590200
Ti       5.66893      5.57377     14.38236         0.172326      1.117838      0.234467
Ti       5.64039      5.61101      6.20033        -1.275930     -1.341680      0.212877
Ti       5.59984      5.57113     10.26823        -0.071571      1.044962     -0.922209
Ti       5.53442      9.28202      2.04217         0.316789      0.923511      0.258777
Ti       5.59273      9.41177     14.43917        -0.047651     -0.753312      0.015427
Ti       5.49162      9.31394      6.27841         1.010203      0.551770     -1.317429
Ti       5.63896      9.34226     10.25426        -0.846293     -1.265392      0.563517
Ti       9.34336      1.88105      2.14116        -0.072046      0.270519     -0.474413
Ti       9.44594      1.97654     14.27618        -0.392041     -2.035781      1.028644
Ti       9.39884     13.15556      2.20790        -1.861046      0.243457     -0.440428
Ti       9.28058     13.11961     14.38403         2.076701      1.599142      0.245796
Ti       9.40377      1.85329      6.20829         0.250458      0.439339      0.047740
Ti       9.34504     13.13802      6.22513        -0.166288     -0.251667      0.176695
Ti       9.41338      1.83287     10.12399        -0.757286      0.166014      1.675485
Ti       9.37401     13.02650     10.25595        -0.972088      0.397030      0.097582
Ti       9.33103      5.63085      2.14847        -0.405251     -1.153500      0.224012
Ti       9.37779      5.59890     14.42810         0.260680      0.625368     -0.209620
Ti       9.39785      5.63154      6.18297         0.412606     -0.507178     -0.236647
Ti       9.32398      5.58477     10.36514         0.425725      0.407242     -1.215071
Ti       9.32006      9.41719      2.12382        -1.300886     -0.097785     -0.267887
Ti       9.26370      9.35782     14.47241         1.963139     -0.277026      0.420031
Ti       9.23905      9.35261      6.14750         0.358873      0.744477     -0.160294
Ti       9.32945      9.29888     10.34482         1.147836     -0.141356     -1.519447
O       2.00731      1.94157      0.22895        -0.801917     -0.002121     -0.818578
O       1.88416      1.99423     12.45734        -0.571083     -0.275415      0.968722
O       2.03488     13.20670      0.27409        -0.968035     -0.355469      0.161088
O       1.82017     13.14445     12.46949        -0.043319     -0.148821     -0.325046
O      13.05057      1.85906      0.35084         0.160192      0.406038     -0.924644
O      13.22359      1.86920     12.55469        -0.455441      0.363702     -0.274871
O      13.11460     13.17224      0.10095         0.008090      0.031553      1.080417
O      13.08401     13.04436     12.58236         0.218030      0.237491     -0.312212
O       1.91266      1.74356      4.35185        -0.596750      0.606574      0.911846
O       1.97317     13.22194      4.35555        -0.570500     -0.625782      0.416322
O      13.26903      1.79815      4.31837        -0.621456      0.488737      1.064081
O      13.17777     12.93822      4.35816        -0.420994      0.412381      0.271608
O       2.02183      1.99357      8.49958        -0.444990     -0.729648     -0.602203
O       1.89773     13.03851      8.46583        -0.254349      0.086092     -0.225935
O      13.22220      1.81037      8.40975        -0.472362     -0.075250     -0.396796
O      13.13229     13.11171      8.40881        -0.227271      0.269384      0.617037
O       1.85644      5.48179      0.21090        -0.133336      0.171337     -0.494676
O       1.90851      5.62422     12.59015        -0.336639      0.143860     -0.182630
O      12.96540      5.63905      0.21043         0.704356      0.055675      0.520446
O      13.05917      5.60222     12.47640         0.439370      0.036649      0.577236
O       1.98319      5.61388      4.26477        -0.428002     -0.264512      0.443904
O      13.16242      5.61832      4.38303        -0.064575     -0.234283     -0.646303
O       1.92181      5.66546      8.36678        -0.191523      0.111394      0.577909
O      13.18495      5.75876      8.40380        -0.194875     -0.702920      0.080027
O       1.75138      9.33668      0.18880         0.239531      0.077533      0.379044
O       1.79850      9.40115     12.58220         0.409596     -0.324383     -0.018767
O      13.04192      9.16228      0.19664        -0.166028      0.328921      0.849985
O      13.12125      9.41264     12.57786         0.109013     -0.159264     -1.351801
O       1.81506      9.36075      4.29147         0.079618      0.140353     -0.563395
O      13.09818      9.45227      4.32046        -0.042043      0.162808     -0.090916
O       1.72050      9.42555      8.50421         0.686097     -0.306023     -0.337128
O      13.16754      9.33287      8.34843        -0.113708     -0.154721      0.828189
O       5.59288      1.77495      0.21166         0.484100      0.341645      0.133241
O       5.87850      1.88609     12.58173        -0.421411      0.292462     -0.145453
O       5.48754     13.15764      0.33055         0.400652      0.048638     -1.380909
O       5.68412     13.17068     12.52338         0.093578     -0.581414      0.195891
O       5.66128      1.94171      4.28423         0.125272     -0.068344      0.856292
O       5.54501     13.09616      4.37742        -0.013775     -0.347024      0.209425
O       5.54152      1.83165      8.39289         0.311834     -0.112019      0.903452
O       5.51548     13.14610      8.42537         0.593969      0.347919      0.720112
O       5.69081      5.62255      0.26428         0.191439      0.273395     -0.222744
O       5.56606      5.62077     12.52013         0.488447     -0.169737      0.318752
O       5.54758      5.50663      4.38961         0.354741      0.377917     -0.905047
O       5.59435      5.60061      8.40294        -0.060904      0.033197      0.848641
O       5.53779      9.35602      0.17612        -0.009233     -0.280804      0.571461
O       5.66086      9.51155     12.61696        -0.050506     -0.080278     -0.811631
O       5.64370      9.30927      4.34392        -0.451043      0.333868      1.151751
O       5.67306      9.36295      8.39862        -0.398468     -0.391733      0.423212
O       9.48801      1.79277      0.26349        -0.437693      0.133173      0.415269
O       9.44804      1.88658     12.48790        -0.250803      0.284341     -0.567719
O       9.47400     13.14758      0.33003        -0.489805     -0.033694      0.265848
O       9.37338     13.09768     12.60329        -0.394734     -0.267340     -1.776766
O       9.42703      1.77685      4.39869        -0.276075      0.470727     -0.203924
O       9.30830     13.25371      4.42407         0.320213     -0.568084     -0.306618
O       9.38227      2.00068      8.36904         0.263515     -0.322088     -0.714254
O       9.40096     13.10232      8.40778        -0.066658      0.062830      0.702314
O       9.25586      5.55034      0.27183         0.527213      0.155969     -0.524905
O       9.37929      5.81717     12.53988         0.155881     -1.130737      0.456348
O       9.46088      5.64190      4.35615        -0.250013     -0.101006     -0.544832
O       9.48224      5.61441      8.50751        -0.454827     -0.136201     -0.323798
O       9.44344      9.56434      0.21565        -0.338644     -0.713869      0.393215
O       9.23974      9.39483     12.61143         0.017352     -0.295992     -0.432578
O       9.35186      9.33523      4.32513        -0.667354     -0.354591      0.112943
O       9.27680      9.37631      8.38219         0.247975     -0.277863      1.282436
O       3.70670      1.86184      2.27784         0.817897      1.356341      0.500005
O       3.79656      1.52957     14.43948        -0.398507      0.567633      0.123198
O       3.68919     12.90174      2.33062        -0.351048     -0.019562      0.422471
O       3.77583     13.33571     14.50965        -0.825131      0.729547     -0.058574
O       0.01140      1.65775      2.39960        -1.292311      0.213829     -0.360889
O      14.99373      2.12610     14.69077         0.314393      0.506000      0.086680
O      14.89651     13.34775      2.31289         1.055915     -0.138058      0.105940
O       0.05605     12.84243     14.65026        -0.624830      0.175922     -0.307553
O       3.77444      2.02583      6.30470         0.553973      0.253671      0.450658
O       3.72365     12.84521      6.53048         0.969180      0.186390     -0.414013
O       0.01129      1.74919      6.54259         0.778872     -0.052926     -0.070633
O       0.00980     13.23379      6.42734        -0.092310     -0.041608      0.215533
O       3.76001      2.12215     10.67707         1.123552      0.263313     -0.508350
O       3.72757     12.96051     10.50704         0.258184     -0.379881      0.382625
O       0.05124      1.57310     10.53008        -1.043344      0.299944     -0.569356
O      14.99851     13.45556     10.39575        -1.060155     -0.561725      0.428878
O       3.73839      5.26706      2.15699        -0.202602      0.467516      0.295574
O       3.80564      5.88521     14.62375        -0.150976     -0.239844      0.069252
O      14.96044      5.98870      2.20617         0.021471     -1.146856      0.066510
O       0.01723      5.29372     14.64552        -0.384794      0.080447     -0.183730
O       3.76698      5.35110      6.37944        -0.033286      0.168797      0.245665
O       0.06065      5.76059      6.30389        -0.409136     -0.450751      0.474855
O       3.67018      5.24134     10.54346         1.114240      0.377987     -0.281147
O      14.97655      6.07814     10.42805         0.143168     -0.428385      0.191441
O       3.65467      9.47675      2.35992         0.331062      0.396566     -0.283769
O       3.72232      9.10156     14.54090         0.194104     -0.129412      0.133326
O      14.87179      9.06588      2.27469         0.206647      0.281818      0.016643
O      14.98507      9.66313     14.56502         0.068946     -0.174076      0.127142
O       3.67874      9.48096      6.50638         0.251145      0.134541     -0.111015
O      14.96680      9.23005      6.21967        -0.224551      0.000842      0.742650
O       3.78264      9.72116     10.48745         0.031246     -0.588824      0.148645
O       0.00287      9.17864     10.51881        -0.762245     -0.505495      0.392030
O       7.45466      1.58208      2.34774         1.241169      0.323218     -0.317964
O       7.63183      2.36430     14.67497        -0.668186     -1.189062     -0.473534
O       7.40773     13.24420      2.39031         1.427223      0.228528     -0.090581
O       7.50261     12.86824     14.77204        -1.107905     -0.235200     -0.324123
O       7.52360      1.52968      6.40100         1.234727      0.398567      0.120415
O       7.47806     13.50352      6.43071         0.257555     -0.920284     -0.063066
O       7.50569      1.67528     10.41841         0.633482     -0.303076      0.042042
O       7.42298     13.41918     10.37810         1.312880     -0.467006      0.347528
O       7.50525      5.92339      2.42377        -0.591232     -0.360558     -0.125316
O       7.52405      5.19708     14.55804         0.007359      0.466068     -0.023339
O       7.49080      5.72805      6.36507         0.740337      0.397117      0.276953
O       7.49892      6.00797     10.42770        -0.364907     -0.409971      0.264279
O       7.45806      9.09046      2.28883        -0.423089     -0.211647     -0.115156
O       7.45369      9.66796     14.75849         0.125337      0.259342     -0.512898
O       7.40387      9.16289      6.46370         0.412347      0.194691     -0.436220
O       7.48702      9.02817     10.52081        -0.506024      0.204809     -0.042065
O      11.21065      2.14181      2.41908         0.614871     -0.249694      0.138054
O      11.26783      1.49991     14.49679         0.778484      0.404611      0.061790
O      11.20061     12.85898      2.52981         0.579111      0.321175     -0.768735
O      11.19642     13.37455     14.57161         0.913060      0.345271      0.177524
O      11.33362      2.17930      6.37860        -0.597373     -0.834828      0.336515
O      11.25479     12.86605      6.44898         0.282413      0.640651     -0.178460
O      11.23481      2.27811     10.31920         1.172390     -0.629747      0.403947
O      11.22338     12.86677     10.45396         0.289821      0.126348      0.241687
O      11.28781      5.24377      2.31141        -2.046434      0.584618      0.156314
O      11.26465      5.98588     14.58333        -0.345627     -0.330242     -0.040028
O      11.27578      5.59348      6.40580         0.409736     -0.665658      0.356955
O      11.26864      5.29458     10.43798         0.112120     -0.105734      0.344452
O      11.13080      9.57379      2.43898         1.516871      0.127773     -0.332202
O      11.20703      8.97913     14.44023        -0.148124      0.278670      0.668144
O      11.15634      9.41524      6.27596         0.625996      0.471751      0.848845
O      11.23541      9.68954     10.39685        -0.304036     -0.156409      0.454956
O       1.67105      3.75633      2.43661        -0.486153     -0.386892     -0.082540
O       2.24776      3.73664     14.58797        -0.550806     -0.330433     -0.352548
O       2.02529      0.05188      2.30178        -0.172448     -1.906710      0.106586
O       1.58601      0.02187     14.54629         0.375124     -0.145915     -0.330965
O      13.29623      3.80861      2.41464         0.977854     -1.179121      0.140841
O      12.83961      3.79668     14.62655         0.115905     -1.406754     -0.089582
O      12.88087     14.95588      2.26514        -0.441591      0.584979      0.472481
O      13.50814      0.03009     14.55257        -0.954401     -0.606077     -0.346721
O       1.77597      3.69180      6.48085        -0.350197      0.850082     -0.504601
O       2.08592     14.97383      6.43747        -0.467200     -0.051575      0.816131
O      13.30089      3.73169      6.38923         0.281737      0.515224      0.271697
O      13.07600     14.99960      6.35502        -0.769276     -1.188611      0.348567
O       1.48747      3.81513     10.41628        -0.053122     -0.795435      0.226826
O       2.09739     14.99061     10.47005         0.216720      0.597588     -0.053015
O      13.50590      3.74858     10.48020        -0.690329     -0.305918     -0.393171
O      12.86261     15.00412     10.59986         0.266098      0.021240     -0.782960
O       2.07843      7.45549      2.31469         0.091080      0.228187     -0.083755
O       1.62462      7.42319     14.70125         0.141583      1.076296     -0.361206
O      12.85874      7.45262      2.46232        -0.621638      0.993571     -0.320545
O      13.46615      7.43850     14.53908         0.073300      0.345113     -0.153059
O       1.99144      7.48819      6.23416         0.335812     -0.130673      0.841934
O      13.08676      7.48138      6.38268        -0.220116      0.567612      0.163389
O       2.27009      7.51383     10.46295        -0.506784     -0.266752      0.456223
O      12.68745      7.53579     10.47885         0.836117     -0.830124      0.093258
O       1.60215     11.20194      2.29729        -0.037156      1.016070      0.175299
O       2.19072     11.26306     14.64834        -0.516638     -0.134581     -0.529886
O      13.34190     11.25503      2.10496        -0.275905     -1.286444      0.383236
O      12.80446     11.20657     14.67351         0.401927      0.144604     -0.163904
O       1.62660     11.19939      6.36376         0.298170      0.746082      0.350323
O      13.23810     11.17407      6.54059         0.111254      0.776533     -0.494925
O       1.66452     11.19778     10.60245        -0.197783      1.726304     -0.038802
O      13.30986     11.19963     10.47000         0.469073      0.976856      0.110069
O       5.84889      3.75613      2.31829         0.198249     -0.302096      0.083924
O       5.37156      3.67941     14.58609        -0.025734      1.748992     -0.058488
O       5.44923      0.00289      2.47262        -0.035606     -0.886231     -0.337271
O       5.92006      0.00993     14.55071         0.517510     -0.415515      0.359703
O       5.92619      3.66636      6.50252        -0.336297      0.356552     -0.254659
O       5.44896     15.00057      6.35366        -0.797588     -0.897867      0.350729
O       6.06140      3.81128     10.49508        -0.866837     -1.288735      0.313275
O       5.37584      0.07705     10.58617         0.148205     -0.531066     -0.590610
O       5.32606      7.49286      2.39101         0.094978     -0.616805     -0.066147
O       5.96481      7.50880     14.49445        -0.311162     -0.551751      0.519581
O       5.51791      7.44355      6.46832        -0.557960      0.770496     -0.056956
O       5.26245      7.42415     10.47916         0.021344      1.305812      0.111051
O       5.73871     11.19419      2.30579        -0.250538     -0.348489      0.156222
O       5.26027     11.30838     14.66946         0.889274     -0.680533     -0.115942
O       5.87931     11.25846      6.47399        -0.456569     -0.681111     -0.402801
O       5.87049     11.18171     10.31623         0.422142      0.879505      0.964884
O       9.07363      3.75997      2.31858         0.013008     -0.823664      0.281563
O       9.84810      3.77109     14.55976        -0.194934      0.481243     -0.229550
O       9.55761      0.00595      2.48547         0.144092     -0.540274     -0.518627
O       8.97838      0.02993     14.42313         0.343797      0.167060      0.741521
O       9.19558      3.79782      6.33541        -0.011849     -1.495918      0.405288
O       9.71889      0.01780      6.45254         0.109603     -0.234759      0.365839
O       9.05239      3.73954     10.52277         0.456362     -0.150629      0.037126
O       9.59957     14.97753     10.48830         0.180223      0.197365     -0.290614
O       9.62306      7.43068      2.30619         0.247210      1.404965     -0.236668
O       8.99337      7.44699     14.74147         0.462946      0.581080     -0.470303
O       9.54754      7.46953      6.39269        -0.851107      0.925452      0.357295
O       9.67380      7.47208     10.54298         0.037196      0.660780      0.009448
O       9.05211     11.21137      2.44487         0.504988      0.846722     -0.074912
O       9.66568     11.25548     14.54312        -0.418335     -0.644267      0.209638
O       9.12535     11.23388      6.42797         0.227145      0.464364     -0.173276
O       9.09780     11.17320     10.52646        -0.326987      1.211532      0.229122
