  # total energy = -7880.27162898 
CRSYTAL
PRIMVEC
    15.3600000000000000    0.0000000000000000    0.0000000000000000
     0.0000000000000000   15.3600000000000000    0.0000000000000000
     0.0000000000000000    0.0000000000000000    17.440000000000000
PRESSURE
0.42252 -0.026918 -5.44233 -0.002879 -0.006918 -0.029242
PRIMCOORD
320 1
Pb       3.80290      3.84565      4.42942        -0.168166     -0.354824     -0.384573
Pb       3.96832      3.75378     17.36640        -0.651550      0.535834     -0.044080
Pb       3.78568     15.30532      4.39697         0.065431      0.238741     -0.498835
Pb       3.88807      0.02330     17.39317        -0.502493     -0.286631     -0.186334
Pb      15.35594      3.81290      4.45338         0.052845     -0.279660     -0.734972
Pb       0.15927      3.86098      0.07374        -0.256511      0.021175     -0.109925
Pb       0.06535     15.28733      4.33841        -0.343008     -0.186026     -0.496529
Pb      15.08968     15.27643      0.02679         0.487907      0.038613      0.188326
Pb       3.73053      3.97188      8.57668         0.159328     -0.490057      0.718806
Pb       3.83159     15.35116      8.84729        -0.025416     -0.191922     -0.459587
Pb      15.03650      3.95801      8.63958         0.887886     -0.115997     -0.111992
Pb      15.25240      0.18827      8.72914        -0.042161     -0.776499     -0.284657
Pb       3.87229      3.75033     12.93076        -0.523468     -0.129075      0.411278
Pb       3.71904     15.22024     12.92030         0.482085      0.640985      0.282610
Pb       0.00309      3.65844     13.14335         0.061472      0.550771     -0.337669
Pb       0.03556      0.00841     12.92665        -0.287914     -0.003597      0.320744
Pb       3.93760      7.66801      4.26599        -0.646983      0.095611      0.083966
Pb       3.66454      7.62190      0.03760         0.589773     -0.286496     -0.469794
Pb       0.22761      7.71177      4.31361        -0.615840      0.164255      0.022219
Pb      15.27689      7.77739     17.34835         0.244885     -0.297344      0.007623
Pb       3.97010      7.63542      8.74213        -0.674355      0.130498     -0.536133
Pb      15.33878      7.63518      8.69531         0.442825      0.073453      0.026510
Pb       3.80166      7.61574     13.06407         0.020717      0.290810      0.035871
Pb       0.08520      7.68363     13.14258        -0.339541     -0.404983     -0.231845
Pb       3.61260     11.49309      4.31574         1.017435     -0.072131     -0.107415
Pb       4.02746     11.30655     17.31869        -0.791573      0.523368      0.140713
Pb       0.16518     11.67384      4.17713        -1.204425     -0.349049      0.690843
Pb      15.23421     11.47891     17.30151         0.220053     -0.331013      0.169975
Pb       3.78157     11.60380      8.72602         0.165894     -0.359402      0.176739
Pb      15.33138     11.34126      8.69533        -0.350947      0.517343      0.080469
Pb       3.96769     11.47933     12.96679        -0.595126     -0.317289      0.188445
Pb       0.15894     11.47889     13.16893        -0.324371     -0.300142     -0.733595
Pb       7.70976      3.70753      4.42580        -0.166686     -0.208530     -0.295929
Pb       7.66756      3.88944     17.32224        -0.346809      0.068362      0.242299
Pb       7.70170      0.02000      4.37474         0.005475     -0.241223     -0.296165
Pb       7.38301     15.31801     17.33506         1.186645      0.130155      0.440796
Pb       7.65288      3.81792      8.70150         0.163570      0.396967     -0.039921
Pb       7.67244     15.25633      8.58070         0.309099     -0.036969      0.743396
Pb       7.83984      4.00644     13.28725        -0.142293     -0.210956     -1.054904
Pb       7.66522      0.17074     13.03202         0.059310     -0.326806     -0.463244
Pb       7.55194      7.47857      4.26664         0.762222      0.958405      0.084629
Pb       7.60478      7.65217      0.00188        -0.306518      0.304738     -0.254241
Pb       7.59385      7.88290      8.63881         0.248172     -0.959065      0.132405
Pb       7.60278      7.60877     12.96321        -0.086545      0.305407      0.474435
Pb       7.70741     11.37514      4.38915        -0.229363      0.347591     -0.026779
Pb       7.51930     11.65263     17.33241         0.727979     -0.848861      0.204690
Pb       7.68970     11.48875      8.69279         0.349979      0.133341     -0.199618
Pb       7.87646     11.63838     13.06340        -0.601469     -0.426199     -0.320574
Pb      11.57162      3.75529      4.37073        -0.195147     -0.209155     -0.194057
Pb      11.57772      3.81116      0.06964         0.094443      0.096593     -0.152794
Pb      11.59258     15.32190      4.28203        -0.224696      0.164251     -0.026444
Pb      11.37358     15.26617     17.26373         0.473922      0.074635      0.590416
Pb      11.55718      4.07631      8.70216        -0.589688     -0.405273     -0.516895
Pb      11.45575     15.27988      8.64740         0.318952      0.010615      0.009019
Pb      11.55420      3.68139     13.32376         0.234765      0.535308     -0.936660
Pb      11.43622     15.33415     13.05625        -0.029507     -0.132518     -0.192225
Pb      11.57257      7.68509      4.20587        -0.317421      0.419799      0.150466
Pb      11.41918      7.58139      0.02920         0.280507     -0.035133      0.354592
Pb      11.56146      7.69528      8.66175        -0.250724     -0.243218     -0.117214
Pb      11.38128      7.69816     13.03648         0.628484     -0.219403      0.268915
Pb      11.57223     11.37315      4.40126         0.178581     -0.085468     -0.339864
Pb      11.34109     11.48907     17.34859         0.098051      0.004584      0.346310
Pb      11.51114     11.52316      8.86937         0.159916      0.119395     -1.096311
Pb      11.46056     11.42946     12.97219         0.574332      0.463682      0.164616
Ti       1.86212      1.89242      2.38139        -0.147479     -0.048006     -0.932680
Ti       1.74962      1.78748     15.50973         1.243810      1.046463     -2.044017
Ti       1.98373     13.40489      2.10757        -0.678958      0.563658      0.087087
Ti       1.88422     13.38499     15.41418         0.502502     -0.139802      0.623060
Ti      13.35294      1.87941      2.21316         0.784690     -0.348153      0.419152
Ti      13.38787      1.86155     15.41869        -0.405596      0.453215      0.607902
Ti      13.31846     13.42565      2.24288         1.136655     -0.082627     -0.348623
Ti      13.39345     13.33058     15.34869        -0.877966     -0.159218     -0.994186
Ti       1.85649      1.90830      6.76757        -0.265226     -0.303442     -1.040199
Ti       1.88290     13.47294      6.80820        -1.123491      0.205631     -0.604067
Ti      13.29711      1.85115      6.60512         0.435169      0.515891     -0.548120
Ti      13.48551     13.38858      6.69006         0.243652     -0.604950     -0.668334
Ti       1.83364      1.88685     10.96393         0.496747      0.400197     -0.807256
Ti       1.85660     13.37396     10.97708        -0.197936     -0.719358     -1.166913
Ti      13.27352      1.94057     10.97155         0.802012      0.460484     -0.235432
Ti      13.40749     13.49851     11.02778         0.209250     -0.965998     -1.859501
Ti       1.95521      5.72616      2.33460        -0.137920     -0.638644     -1.398179
Ti       1.92981      5.70462     15.42997         0.143828     -0.335627     -0.526480
Ti      13.47391      5.71134      2.36708         0.428282      0.253768     -0.990635
Ti      13.45221      5.72825     15.54106         0.046940     -0.276937     -1.711170
Ti       1.93416      5.75652      6.71951        -0.550393      1.030196     -1.017415
Ti      13.40733      5.77395      6.44171         0.056528     -0.288595     -0.169891
Ti       1.84673      5.66606     11.08226        -0.994270      0.861260     -1.308016
Ti      13.31561      5.82261     11.16610         1.287537     -0.611076      0.404362
Ti       1.85715      9.56862      2.13945         0.882416      0.074463     -0.645717
Ti       1.95576      9.58153     15.35520        -0.227388     -0.255465     -0.828871
Ti      13.44974      9.64587      2.26149        -0.433752     -0.285972     -0.250192
Ti      13.32687      9.54444     15.31872         1.215226      0.447794     -0.589282
Ti       1.87256      9.61297      6.71201        -0.032764     -0.866785     -0.761938
Ti      13.39962      9.49114      6.69777         0.517436      1.108423     -2.076376
Ti       1.88454      9.52388     11.06842         0.648347     -0.071247     -1.072106
Ti      13.44465      9.62962     11.10604         0.514596     -0.101771     -0.819759
Ti       5.71983      1.99385      2.32380        -0.341047     -0.960257     -0.521685
Ti       5.66340      1.91563     15.23440        -0.038889      0.365927      1.173140
Ti       5.78074     13.46992      2.36279        -0.330708      0.136611     -0.449505
Ti       5.69439     13.42196     15.27673         0.700320     -0.148440     -1.241085
Ti       5.72397      1.84625      6.77812        -0.043881      0.289108     -1.283566
Ti       5.77297     13.37111      6.76738         0.395752     -0.364806     -1.157318
Ti       5.79002      1.93559     10.92122         0.183964     -0.846130      1.150733
Ti       5.81230     13.42666     11.07834        -0.014737      0.639650     -1.015239
Ti       5.75187      5.69137      2.37016        -0.501123      0.182321     -1.720294
Ti       5.74542      5.79873     15.30221        -0.340917      0.375352     -0.160654
Ti       5.79124      5.67279      6.59244        -0.305582      0.581947      0.446793
Ti       5.66155      5.71466     10.98082         1.238893      0.067183     -0.931991
Ti       5.70899      9.67915      2.31158         0.394040     -0.697080     -1.595547
Ti       5.77766      9.52803     15.33345         0.229396     -0.443321     -1.259436
Ti       5.64132      9.64052      6.69525         1.151842      0.083572     -1.177522
Ti       5.75577      9.57531     11.02361        -0.520314      0.183357      0.377284
Ti       9.51690      1.82582      2.06767         0.372737      0.662091      0.336048
Ti       9.47899      1.90864     15.41620         0.585534     -0.691922     -0.611749
Ti       9.55805     13.40366      2.31293        -0.500924     -0.587823     -0.314132
Ti       9.56008     13.43187     15.28496         0.033895      0.361611     -0.152404
Ti       9.55957      1.93865      6.75140         0.666918      0.067947     -0.080795
Ti       9.68755     13.41331      6.61811        -0.654007     -0.669166      0.165467
Ti       9.55052      1.97362     10.90790         0.138755     -0.122085     -0.665203
Ti       9.61769     13.51132     10.89854        -0.120772     -0.348746      0.153027
Ti       9.63297      5.59112      2.44764         0.038450      0.914348     -0.989055
Ti       9.64885      5.75375     15.39477        -0.442044      0.362294     -0.210091
Ti       9.51988      5.80379      6.62202         0.845219      0.001289     -0.843079
Ti       9.62026      5.70625     11.07227        -0.657549      0.189621     -1.152263
Ti       9.50450      9.53681      2.27884         0.560817      0.693232     -0.577702
Ti       9.61487      9.52660     15.38307        -1.729693      0.594472     -0.101313
Ti       9.59159      9.52630      6.66146        -0.142472      0.977297     -0.719906
Ti       9.51541      9.56633     11.06644         0.493612      0.215629     -1.072208
O       1.82323      1.96551      0.55339         0.361733     -0.288230      0.964007
O       1.71126      1.86968     13.57930        -0.021914     -0.186384      1.703382
O       2.02437     13.45726      0.33064        -0.055185     -0.155369      0.745847
O       1.90280     13.35292     13.63442         0.077962      0.254870      0.313604
O      13.37614      1.74309      0.42072         0.084225      0.235219      0.344722
O      13.45083      2.00460     13.63023        -0.168370     -0.320628      0.530113
O      13.35875     13.53457      0.39471         0.071392     -0.721463      1.350715
O      13.17629     13.22332     13.55643         0.739671      0.619392      1.178818
O       1.83838      1.83639      4.90659         0.261530     -0.008696      1.420566
O       1.66584     13.56214      4.96060         1.069735     -0.292122      1.386939
O      13.19441      1.97501      4.77536         0.358634     -0.478188      1.296667
O      13.50160     13.38059      4.84317        -0.024890      0.147265      1.272376
O       1.82771      1.93330      9.11632         0.078596     -0.093805      1.778810
O       1.87418     13.45541      9.17478         0.273848     -0.231291      0.968440
O      13.36491      1.97580      9.15740         0.050517     -0.091123      0.976719
O      13.35563     13.50031      9.13463         0.097439     -0.143152      2.134698
O       2.11044      5.71822      0.47058        -0.771446     -0.109807      1.510136
O       1.92008      5.68046     13.60975         0.012177      0.015128      1.265228
O      13.40686      5.67816      0.51108        -0.064051      0.269789      1.481940
O      13.27313      5.73516     13.71321         0.326963     -0.427405      1.079058
O       1.97510      5.85015      4.88079        -0.148892     -0.143289      1.168175
O      13.46571      5.64545      4.65640        -0.173632      0.365991      0.531969
O       1.82725      5.66601      9.15915         0.260016      0.056925      1.972570
O      13.39131      5.76758      9.35508        -0.295596      0.060267      0.402488
O       1.94561      9.60821      0.29383        -0.243075     -0.164414      1.972151
O       1.89830      9.63723     13.47645         0.253185     -0.251636      2.008997
O      13.43488      9.74201      0.43225         0.101396     -0.474693      1.507498
O      13.41426      9.68826     13.51014        -0.199012     -0.221315      1.031100
O       1.91261      9.50510      4.83785         0.193408      0.142557      1.771425
O      13.43630      9.54561      4.82477        -0.261404      0.058416      1.766051
O       1.81190      9.48056      9.22833         0.185424      0.149252      0.734157
O      13.55442      9.57152      9.20915        -0.372622     -0.437144      1.898594
O       5.68324      2.05150      0.46470         0.086078     -0.555116      1.522034
O       5.77993      1.90682     13.49667        -0.064948      0.121570      0.167524
O       5.74864     13.55887      0.50213         0.096060     -0.350307      1.423795
O       5.65707     13.50021     13.46915         0.128366     -0.189560      0.395987
O       5.72840      1.93890      4.94536         0.260385     -0.255119      1.105293
O       5.75325     13.30259      4.96354        -0.032103      0.207787      0.817834
O       5.92586      1.76276      9.18990        -0.612710      0.395439     -0.336752
O       5.75744     13.45752      9.24141        -0.025007     -0.062236      1.330726
O       5.85263      5.61273      0.53639        -0.419324      0.208657      1.301256
O       5.76941      5.84189     13.46128        -0.052723     -0.488076      1.278716
O       5.69005      5.61075      4.75943         0.278378      0.516281      1.275699
O       5.79690      5.79528      9.08408        -0.518847     -0.103041      2.525417
O       5.80013      9.68297      0.41035        -0.235813     -0.192027      2.020696
O       5.77493      9.38612     13.48655        -0.294859      0.635877      1.562616
O       5.65874      9.86753      4.86568        -0.167404     -0.749718      1.106796
O       5.73275      9.56457      9.20570         0.151306     -0.243426      1.162745
O       9.51521      2.11484      0.25867         0.097537     -0.830115      1.584351
O       9.53548      1.71920     13.55346        -0.036799      0.660026      1.288612
O       9.48134     13.34168      0.51485         0.306381      0.026093      1.043769
O       9.69390     13.54701     13.46681        -0.470292     -0.275428      1.139750
O       9.60799      1.85421      4.95227        -0.318546      0.033012      0.895496
O       9.51360     13.67027      4.84839         0.477308     -0.692896      0.318711
O       9.55481      2.00153      9.07427         0.205999      0.171350      1.510164
O       9.66639     13.29384      9.09905         0.145039      0.448632      1.484557
O       9.75949      5.55408      0.62384        -0.523951      0.270986      0.896930
O       9.60308      5.83822     13.58319         0.175632     -0.397459      1.198807
O       9.53498      5.93862      4.79428        -0.255743     -0.682730      0.877590
O       9.61011      5.73517      9.25680         0.262165     -0.171920      0.896230
O       9.50705      9.72186      0.44974         0.268880     -0.491785      1.023847
O       9.58435      9.53662     13.57949         0.023867      0.126341      0.945143
O       9.65207      9.51549      4.86062        -0.254719      0.088182      1.064771
O       9.46573      9.65099      9.25613         0.297700     -0.442760      0.858563
O       3.76628      1.91135      2.84471         0.658097      0.039031     -0.476900
O       3.72272      1.99820     15.72148         1.271422     -0.834097     -0.205606
O       3.81448     13.41218      2.82013         0.239574     -0.214704     -0.476824
O       3.98631     13.46653     15.79630        -2.547345      0.164989     -0.028024
O      15.26244      1.91568      2.70341         0.771841     -0.274939     -0.011258
O      15.28655      1.86807     15.89792        -0.588747      0.101602     -0.325859
O       0.10049     13.43147      2.60553        -0.538772      0.090720     -0.400177
O      15.30297     13.32998     15.71682         0.522544     -0.188058     -0.263633
O       3.89495      1.80512      7.16424        -1.167645     -0.141425     -0.088691
O       3.84890     13.43918      7.16726        -0.704898      0.147940     -0.254639
O      15.30511      2.00645      6.96364        -0.324928     -0.312742      0.247263
O      15.33032     13.39669      7.19063        -0.017686      0.233307     -0.263619
O       3.81668      1.87138     11.43848        -0.644130      0.037763     -0.708799
O       3.77288     13.46050     11.38019         0.303173     -0.361159     -0.112193
O      15.31772      1.86797     11.37207        -0.281076      0.063038     -0.108830
O       0.00542     13.42468     11.41913        -0.641769      0.030417      0.079109
O       3.76469      5.67513      2.76400         1.211440      0.169799      0.083637
O       3.85823      5.83543     15.77038        -0.087138     -0.299594     -0.305497
O       0.02415      5.75684      2.72963        -0.543322     -0.149631     -0.277153
O       0.01781      5.75964     15.89633        -0.148209     -0.105724     -0.225245
O       3.87279      5.80712      7.07300        -0.223637     -0.348661     -0.189509
O      15.28121      5.68445      6.88343         0.539331     -0.112010      0.295920
O       3.81490      5.75268     11.50487         0.096637     -0.328937     -0.894260
O       0.00137      5.76946     11.54101        -0.521861     -0.233359     -0.398991
O       3.82658      9.70983      2.61476        -0.572578     -0.591123      0.034247
O       3.86821      9.50357     15.72022        -0.119366     -0.010902     -0.036323
O       0.06623      9.57453      2.66994        -0.642516     -0.115750     -0.576179
O      15.35039      9.60403     15.65973        -0.169548      0.191517      0.172024
O       3.86097      9.65536      7.12620        -1.524192     -0.403756     -0.065733
O       0.00999      9.44017      7.07388         0.287594      0.449963     -0.184462
O       3.79319      9.62815     11.44157         1.270893     -0.350319     -0.352946
O       0.11527      9.50295     11.55342        -2.933551      0.190858     -0.197955
O       7.63397      1.87434      2.61687         0.037481      0.370578      0.056175
O       7.61032      1.87043     15.75374        -0.576195      0.288742     -0.484877
O       7.64580     13.43611      2.79601        -0.208776      0.152499     -0.294361
O       7.59896     13.40847     15.73391         0.829585      0.434252     -0.322586
O       7.68171      1.91702      7.16410         0.026821      0.073690     -0.697656
O       7.77112     13.29928      7.12839        -0.743871      0.156462     -0.410307
O       7.73489      1.96099     11.38497        -1.164706      0.053378      0.000590
O       7.68643     13.44571     11.46354         0.227204     -0.123387     -0.414902
O       7.60110      5.72428      2.73013         0.986722     -0.083117      0.039683
O       7.69349      5.75500     15.74412         0.183487      0.143842     -0.133614
O       7.64821      5.68988      7.01067        -0.451741     -0.115229     -0.399630
O       7.74951      5.64919     11.54966        -1.406109      0.360763     -0.597713
O       7.66435      9.48810      2.76056        -0.745318      0.144987     -0.119916
O       7.58722      9.50537     15.84293         1.502159      0.341981     -0.521782
O       7.66081      9.62664      7.08917        -0.210312      0.207734     -0.327178
O       7.69329      9.63742     11.61966        -0.710244     -0.176569     -1.154609
O      11.48392      1.78437      2.52546        -1.074327      0.543858      0.031878
O      11.40476      1.87579     15.67524         1.220240      0.225475     -0.027504
O      11.50305     13.43293      2.68623        -0.813589     -0.290631     -0.232286
O      11.43999     13.35601     15.79576         0.124232      0.279271     -0.216021
O      11.52709      1.82629      7.14628        -1.037694      0.553620     -0.456531
O      11.61075     13.30097      7.07101        -0.958739      0.420112     -0.239487
O      11.46805      1.85065     11.41585        -0.236312      0.070287     -0.017515
O      11.50851     13.46230     11.36113        -0.768413     -0.068285     -0.268330
O      11.52660      5.62585      2.83013        -0.285444      0.401518     -0.644856
O      11.53789      5.69557     15.95438        -1.030167      0.394507     -0.393776
O      11.51501      5.92061      6.97017        -0.268276     -0.451464      0.142654
O      11.46377      5.73575     11.53206         0.498170      0.289418     -0.187555
O      11.51368      9.67598      2.74613         0.123253     -0.033835     -0.546667
O      11.47018      9.46935     15.67109        -0.129320      0.430943      0.264973
O      11.51565      9.49487      7.01589        -0.189528     -0.412677      0.373354
O      11.53008      9.50571     11.37349         0.025826      0.612656     -0.169521
O       1.88139      3.83883      2.82139        -0.264849     -0.470721     -0.146925
O       1.87788      3.77711     15.88143        -0.287559      0.549426     -0.460012
O       1.95198     15.28878      2.69511        -0.041510      0.554124     -0.133296
O       1.86033     15.30695     15.81399         0.256918     -0.367550     -0.251768
O      13.38492      3.74921      2.67943        -0.033362      0.622642     -0.338380
O      13.36708      3.82593     15.91112         0.372297     -1.031012     -0.621527
O      13.41097     15.27477      2.66160         0.234609      0.303670      0.003974
O      13.39863     15.24976     15.74375        -0.126085      0.724255     -0.486249
O       1.92147      3.84150      7.07451         0.373957     -0.314333     -0.451205
O       1.78904     15.34793      7.25413         0.545493      0.477910     -0.589802
O      13.31854      3.86821      6.93504        -0.177227      0.133799      0.217405
O      13.36848     15.33934      6.95616         0.421363      0.146010      0.001364
O       1.81670      3.80548     11.48497         0.601684     -0.591955     -0.345759
O       1.81461     15.30620     11.36167         0.421751      0.639107     -0.044164
O      13.31868      3.80164     11.43186         0.233539     -0.027214      0.032171
O      13.38276     15.32550     11.41283         0.294642      0.881431      0.079319
O       1.94261      7.63113      2.61766         0.272340      1.045016     -0.052034
O       1.88390      7.66831     15.89424         0.013589     -0.170575     -0.730163
O      13.37533      7.73936      2.58017         0.116756     -0.780026     -0.149937
O      13.45983      7.67634     15.82342        -0.303981      0.121535      0.031119
O       1.91045      7.63088      7.19365         0.213581      0.222098     -0.595254
O      13.51273      7.58235      7.04112        -0.384336      0.481387      0.094737
O       1.87548      7.60723     11.56976         0.609161     -0.394954     -0.566135
O      13.39354      7.67743     11.63001         0.248526     -0.007084     -0.767341
O       1.88118     11.46140      2.59652         0.473039      0.484476     -0.357718
O       2.06716     11.42409     15.75064        -0.531842      1.354673     -0.329350
O      13.49196     11.55799      2.74908        -0.116634     -0.327790     -0.505134
O      13.33757     11.41888     15.85429         0.058956      0.613378     -0.538045
O       1.83477     11.52408      7.04344         0.487790     -0.587603     -0.068289
O      13.48109     11.37847      7.13571        -0.090218      0.365912     -0.300744
O       1.82134     11.42055     11.37375         0.394510      1.605640     -0.015388
O      13.43418     11.55036     11.37297        -0.109928     -1.037485     -0.240311
O       5.70605      3.81623      2.81081         0.069970     -0.539605     -0.254292
O       5.72403      3.91074     15.70613         0.211569     -1.052084     -0.502973
O       5.71321      0.01867      2.71690        -0.148808     -0.225067     -0.047289
O       5.77066      0.00482     15.75967        -0.637315      0.777009     -0.602845
O       5.64063      3.79025      7.10578         0.614280      0.333355     -0.320392
O       5.87130     15.24346      7.09685        -0.302265      0.863099     -0.224432
O       5.66203      3.81654     11.24706         0.142335      0.518278      0.062006
O       5.74038      0.03807     11.38943         0.034767     -0.456779     -0.012989
O       5.64004      7.64558      2.63271         0.228679      0.100378      0.217635
O       5.78376      7.65135     15.85361        -0.031355     -0.487072     -0.230218
O       5.77748      7.66234      6.94094        -0.157714      0.178660     -0.037842
O       5.68386      7.66136     11.38465         0.455280     -0.302625     -0.609877
O       5.77173     11.48125      2.64262         0.236140      1.118133     -0.104325
O       5.73804     11.48830     15.63321         0.009033     -0.013883     -0.077770
O       5.71249     11.48223      7.31367         0.118688      0.348299     -0.640854
O       5.76438     11.50106     11.42552         0.015813      0.038041     -0.173387
O       9.49192      3.74042      2.85157         0.418664     -0.126994     -0.632621
O       9.50488      3.86192     15.60750         0.276456     -0.198962     -0.292452
O       9.51014      0.02177      2.53354         0.084515     -0.349303     -0.024770
O       9.63037     15.31276     15.78241        -0.954473     -0.174394     -0.465999
O       9.59664      3.92916      7.04505         0.235466     -0.922332     -0.276538
O       9.60787     15.26950      7.08967         0.100103      0.794028     -0.074551
O       9.60560      3.83521     11.49918         0.330185     -0.531665     -0.051340
O       9.52167      0.03536     11.21224         0.357186     -0.561793      0.049390
O       9.61012      7.68478      2.66180         0.174110     -0.844636     -0.328176
O       9.60677      7.66226     15.93152        -0.110158     -0.420601     -0.412393
O       9.44883      7.63034      7.13812         0.394413      0.700679     -0.003722
O       9.58570      7.70139     11.43638        -0.152264     -0.514266     -0.242456
O       9.47258     11.47049      2.78310         0.517090      0.634731     -0.289421
O       9.57239     11.54742     15.70459        -0.242518     -0.893750     -0.370377
O       9.66681     11.46725      7.07248         0.038768     -0.397432     -0.468338
O       9.60310     11.52587     11.41969        -0.029169      0.169802     -0.135776
