  # total energy = -7882.38369720 
CRSYTAL
PRIMVEC
    15.3600000000000000    0.0000000000000000    0.0000000000000000
     0.0000000000000000   15.3600000000000000    0.0000000000000000
     0.0000000000000000    0.0000000000000000    17.440000000000000
PRESSURE
3.13665 2.68905 5.4204 0.217083 0.298337 -0.020293
PRIMCOORD
320 1
Pb       3.83153      3.74494      4.33271        -0.115982      0.287850     -0.200594
Pb       3.77158      3.74978     17.40764         0.343190      0.039927     -0.196160
Pb       3.77405     15.28580      4.36209         0.062680     -0.095181     -0.275219
Pb       3.68597     15.28099     17.29938         0.787646      0.047760      0.711688
Pb       0.05853      3.72776      4.27467        -0.133426      0.343911      0.414581
Pb       0.07850      3.85124     17.41354        -0.374176     -0.376545     -0.218283
Pb       0.03930     15.32502      4.26546         0.032747      0.078483      0.527541
Pb      15.28748     15.26958     17.39329         0.073623      0.641244     -0.298771
Pb       3.73772      3.80008      8.76022         0.293958      0.248133     -0.724800
Pb       3.85243      0.03454      8.60639        -0.317838     -0.185392     -0.030511
Pb      15.30331      3.95206      8.71030        -0.393348     -0.533399     -0.183401
Pb      15.20476      0.02443      8.73334         0.240840      0.429170      0.059128
Pb       3.77647      3.77652     12.97062         0.849011      0.576823      0.459275
Pb       3.73681      0.03816     12.91105         0.355406     -0.340817      0.094147
Pb       0.04076      3.77683     13.07198        -0.508914     -0.419955      0.047938
Pb      15.32221     15.27691     13.03729         0.171138      0.452009      0.028215
Pb       3.81830      7.65133      4.33265         0.335199     -0.252204     -0.191261
Pb       3.78438      7.54266     17.33105         0.036341      0.432113      0.199619
Pb       0.04061      7.80322      4.29407         0.048860     -0.541832      0.110056
Pb      15.20502      7.58540     17.38068         0.695488     -0.016888      0.452586
Pb       3.79650      7.73424      8.68696         0.298064     -0.205017     -0.326577
Pb      15.35311      7.67457      8.67701        -0.332253      0.081685      0.054465
Pb       3.80617      7.57550     12.94943        -0.002155      0.066359      0.017602
Pb      15.32240      7.56786     13.09856         0.240011      0.582190     -0.418374
Pb       3.83783     11.54370      4.31861        -0.070102     -0.245837      0.091148
Pb       3.79962     11.57165     17.34852         0.498288     -0.423633      0.078235
Pb      15.25288     11.53302      4.34362         0.655323     -0.137240     -0.231307
Pb      15.25926     11.55176     17.30826         0.058480     -0.154800      0.275298
Pb       3.86391     11.50279      8.69176        -0.185704      0.231223     -0.343566
Pb      15.26108     11.47429      8.72306         0.516954      0.044901      0.483984
Pb       3.82803     11.43121     12.98282        -0.138180      0.316879      0.005794
Pb       0.11219     11.52857     13.01774        -0.281586     -0.345679      0.180121
Pb       7.70694      3.69180      4.29814        -0.130595      0.432710      0.600450
Pb       7.55157      3.78972      0.02704         0.378118      0.157640     -0.259411
Pb       7.73801     15.26070      4.37219        -0.238228      0.475220      0.598578
Pb       7.62637     15.35817     17.39838        -0.047482     -0.489581      0.281896
Pb       7.64786      3.87173      8.61174         0.568681     -0.034986      0.221341
Pb       7.63514     15.35889      8.67541         0.438678     -0.046536     -0.299733
Pb       7.79141      3.93117     13.00442        -0.180216     -0.001897      1.015071
Pb       7.57021      0.14224     12.95186         0.100536     -0.700780      1.031624
Pb       7.74623      7.59808      4.32939        -0.482451      0.151471     -0.189269
Pb       7.52950      7.73819     17.39051         0.462792     -0.319062      0.313314
Pb       7.70605      7.65859      8.67257         0.192309      0.072892     -0.189130
Pb       7.64582      7.70269     12.98285         0.455746     -0.192829      0.330439
Pb       7.68802     11.47979      4.34246        -0.152260     -0.500155      0.252428
Pb       7.62819     11.48824     17.40955        -0.609748      0.610056     -0.548474
Pb       7.63030     11.57373      8.63195        -0.033923     -0.057127      0.340384
Pb       7.65931     11.48042     12.93420         0.416863      0.296998      0.402850
Pb      11.41791      3.77564      4.23005         0.626682      0.333922      0.735189
Pb      11.62601      3.80776      0.02326        -0.481818      0.228932      0.023402
Pb      11.53020     15.21331      4.34801         0.157759      0.443834      0.214329
Pb      11.36551     15.27562      0.07480         0.338615      0.425632     -0.148046
Pb      11.36533      3.90469      8.63818         0.948680     -0.547737      0.956637
Pb      11.47984      0.03098      8.66938         0.096184     -0.023595      0.287719
Pb      11.59655      3.74070     13.11896        -0.084350     -0.047556      0.211476
Pb      11.57057     15.34687     12.96974        -0.209884      0.382975      0.668808
Pb      11.45456      7.64364      4.23106         0.509201      0.043515      0.567434
Pb      11.51679      7.66119     17.43332        -0.170386     -0.065737      0.008864
Pb      11.52262      7.70115      8.65394         0.286817      0.111934      0.167163
Pb      11.46120      7.59884     13.10376        -0.145952      0.180055     -0.057905
Pb      11.54612     11.48636      4.23325        -0.027433     -0.102402      0.215803
Pb      11.37787     11.45458     17.39331         0.430860      0.065590     -0.289460
Pb      11.58975     11.51183      8.58422        -0.342889     -0.051987      1.085907
Pb      11.57045     11.48290     13.02420        -0.640755      0.098607      0.567152
Ti       1.98082      1.84033      2.31076         0.041783      0.482268     -0.307388
Ti       1.92815      1.90344     15.37903        -0.596276     -0.368514      3.415583
Ti       1.84730     13.34275      2.30097         1.458353      0.657713      1.247810
Ti       1.83455     13.39761     15.39592         0.085542      0.459705     -1.145219
Ti      13.52864      1.88809      2.39373        -0.416925      0.548349      0.685524
Ti      13.43097      1.89407     15.56108         0.463554     -0.106528     -1.822836
Ti      13.46098     13.48190      2.30932        -0.465776     -0.591605      1.513163
Ti      13.32561     13.40122     15.42223         1.425584      0.433788      0.679227
Ti       1.88637      1.90316      6.70710        -0.210374      0.432226      0.444119
Ti       1.84189     13.43437      6.74058         0.932152     -0.279125      1.139497
Ti      13.44197      1.99875      6.68593         0.329853     -0.968594      1.130918
Ti      13.46646     13.48421      6.74739        -0.591649      0.409078      0.502089
Ti       1.93640      1.98285     10.98373        -0.880109     -1.178679      0.358569
Ti       1.91038     13.44279     10.99507         0.264408     -0.293683     -0.753156
Ti      13.40494      1.89141     11.10547         0.953305      0.026570     -0.956179
Ti      13.43869     13.39280     11.17174         0.215890      0.459621     -0.351668
Ti       1.87789      5.74553      2.34200         0.437135     -0.547102      1.563577
Ti       1.85286      5.74568     15.37887         0.420491     -0.456535      0.938524
Ti      13.43823      5.72370      2.41995        -0.399762     -0.267430     -0.643452
Ti      13.35096      5.75028     15.39289         1.224138     -0.418774      0.694182
Ti       1.90392      5.75726      6.69921         0.193484     -0.026431      0.318278
Ti      13.39987      5.77965      6.61694         1.121537     -0.076000      1.123170
Ti       1.85653      5.74770     11.00259         0.734350      0.600744      2.419411
Ti      13.46802      5.68141     11.19090         0.176553      0.346965     -0.530154
Ti       1.94997      9.60972      2.24860         0.774477     -0.136492      0.579507
Ti       1.79112      9.59169     15.45601         1.201148     -0.494461     -0.029291
Ti      13.47638      9.57811      2.29586        -0.035223      0.016142      2.048339
Ti      13.41039      9.55647     15.36381        -0.521637      0.502181      0.713535
Ti       1.95126      9.64312      6.71330         0.148022     -0.066899      0.264160
Ti      13.50569      9.63987      6.65332        -0.765537     -0.999213      1.327110
Ti       1.93837      9.59975     11.04715        -0.675390     -0.566872      3.426897
Ti      13.44697      9.53263     11.18546         1.496554     -0.045664     -0.151764
Ti       5.86757      1.79884      2.49347        -1.633276      0.066607     -0.403766
Ti       5.77855      1.83952     15.46588         0.377070      0.636411     -2.126223
Ti       5.78292     13.39355      2.44873        -1.315778     -0.056557     -1.813810
Ti       5.71271     13.39311     15.29360         0.914670     -0.037199      3.206751
Ti       5.76521      2.02309      6.71813         0.335584     -0.693827     -0.687645
Ti       5.71705     13.49860      6.68666         0.170198     -0.677944      1.614383
Ti       5.81224      1.96407     10.97253        -0.695406     -0.071096      0.478236
Ti       5.76744     13.44577     11.02905         0.374012      0.013562      1.109921
Ti       5.70200      5.65805      2.35296         0.078226      0.740072      0.505548
Ti       5.71701      5.71490     15.39275         0.266526     -0.266615      1.634663
Ti       5.72452      5.75769      6.68510         0.387372      0.148911      0.562089
Ti       5.83121      5.73837     10.99024        -0.937383      0.217551      2.308866
Ti       5.76006      9.50215      2.38607         0.181808      0.697318      0.933034
Ti       5.65914      9.54185     15.28174        -0.114015      1.028500      2.975312
Ti       5.82223      9.57574      6.68585        -0.241067      0.052769      1.494300
Ti       5.78167      9.62220     11.02357         0.046541     -0.005464      0.400301
Ti       9.70591      1.87716      2.42206        -0.708637     -0.240612     -0.333698
Ti       9.65432      1.91081     15.52683        -0.251226      1.283708      0.940293
Ti       9.53967     13.39720      2.42045         0.280837      0.513889     -0.014242
Ti       9.61399     13.50395     15.33200        -1.233965     -0.585938      0.438910
Ti       9.65688      1.87019      6.70865        -0.719106      0.551053     -0.353032
Ti       9.59240     13.41513      6.70099         0.299914      0.502704      0.875491
Ti       9.55628      1.91575     11.12184         1.683232      0.432496      0.261648
Ti       9.61911     13.48984     11.09502        -0.475295     -0.217527     -0.152505
Ti       9.53677      5.73602      2.30518         0.483339     -0.195229     -0.880900
Ti       9.56389      5.78349     15.59621        -0.520657     -0.447865     -0.476177
Ti       9.64548      5.76107      6.69390        -0.684543     -0.089204      1.845624
Ti       9.73364      5.76365     11.05672        -0.220644     -0.214645      0.042949
Ti       9.62815      9.55141      2.31602        -0.880416      0.181659      2.711898
Ti       9.52048      9.61547     15.44646         0.478043     -0.275481     -1.023857
Ti       9.62597      9.64531      6.71756         0.162342     -0.672818     -0.165615
Ti       9.68209      9.62241     11.07772        -0.389962     -0.136488      0.516081
O       1.89944      1.98527      0.54471         0.100757     -0.371630      0.019877
O       1.91488      1.91866     13.72581         0.236118     -0.107783     -3.895024
O       1.88519     13.38939      0.60819        -0.012901      0.149735     -2.463265
O       1.77446     13.42524     13.60559         0.495868     -0.003906      0.468213
O      13.55619      1.89365      0.68085        -0.200453      0.033791     -1.798398
O      13.48291      1.92529     13.75860        -0.354731     -0.024815     -0.148394
O      13.44421     13.56712      0.62498        -0.082712     -0.269179     -2.210417
O      13.44998     13.42913     13.72378        -0.176829      0.243273     -1.910602
O       1.91614      1.89631      4.95835        -0.178704      0.186497     -0.920401
O       1.88177     13.42957      5.02038        -0.149311     -0.120255     -1.197403
O      13.56204      1.97609      4.99222        -0.142778     -0.304056     -2.045148
O      13.37398     13.52395      5.03511         0.149022     -0.418218     -1.677207
O       2.00467      1.98630      9.26108         0.020683     -0.019041     -1.029869
O       1.96201     13.33153      9.22692        -0.068064      0.360695      0.057626
O      13.43086      1.92653      9.33892         0.193798     -0.305948     -0.350606
O      13.45585     13.37490      9.43962         0.036803     -0.041374     -1.434022
O       1.95806      5.83369      0.63863        -0.099427     -0.520558     -1.946526
O       1.93248      5.77556     13.68578        -0.183639     -0.182131     -1.969861
O      13.53769      5.71720      0.64763        -0.198895      0.269413     -0.288419
O      13.38069      5.73309     13.66207        -0.003385      0.272604     -1.350939
O       2.00773      5.72944      4.97545        -0.278489     -0.013373     -0.964828
O      13.31915      5.81191      4.91621         0.148260      0.064272     -1.426145
O       1.86981      5.78323      9.31661        -0.011802     -0.156188     -2.106057
O      13.46550      5.70151      9.46773         0.226570     -0.103647     -1.380466
O       2.01909      9.56688      0.52075        -0.377440      0.040094     -0.506772
O       1.81552      9.69308     13.72391         0.171149     -0.368072     -0.751643
O      13.54142      9.57484      0.63136        -0.145078      0.028634     -2.590310
O      13.43792      9.54484     13.62881        -0.141082     -0.227493     -0.811903
O       1.77755      9.82042      5.01168         0.134858     -0.844499     -1.446377
O      13.46334      9.55920      4.92782         0.266075      0.268942     -0.750140
O       1.94995      9.68469      9.41141         0.185933     -0.306765     -4.487883
O      13.51064      9.72362      9.45247        -0.265914     -0.035707     -1.237199
O       5.92189      1.89132      0.76351        -0.110298     -0.087487     -1.439380
O       5.79563      1.83631     13.64683        -0.219743      0.050093      0.942772
O       5.79829     13.39880      0.65895         0.032900     -0.349771      0.153758
O       5.73929     13.43600     13.64517        -0.095579      0.055499     -3.315882
O       5.77853      1.98723      4.95360        -0.232142      0.093455     -0.534612
O       5.65776     13.47864      5.01095         0.246200      0.095182     -2.436639
O       5.78913      2.03790      9.22622        -0.048722     -0.367712     -0.435314
O       5.76864     13.39105      9.32016         0.109599      0.160593     -1.963147
O       5.65720      5.64044      0.62751        -0.139693      0.034634     -1.302565
O       5.68758      5.76220     13.71824         0.349133      0.074771     -2.672480
O       5.73179      5.78593      4.95387         0.207212     -0.052509     -1.123983
O       5.79877      5.76200      9.30888         0.133072     -0.065255     -1.250561
O       5.79634      9.59652      0.68794        -0.011512      0.469284     -1.964699
O       5.71652      9.61606     13.60628         0.044786     -0.022208     -2.361231
O       5.90655      9.48837      5.00592        -0.050422     -0.215268     -2.135931
O       5.78382      9.62298      9.29329        -0.072290      0.048626     -0.900410
O       9.66129      1.79674      0.68758         0.130207      0.122054     -0.533217
O       9.71162      2.02185     13.82046        -0.188521     -0.143937     -1.787298
O       9.59538     13.55014      0.70652         0.129695     -0.387808     -1.262700
O       9.62992     13.49097     13.62010         0.097789     -0.009991     -0.935554
O       9.62247      2.01950      4.97568         0.122939     -0.288848     -1.477424
O       9.55571     13.51790      4.95703         0.381791     -0.467988     -0.952197
O       9.73060      1.86564      9.43401        -0.618588     -0.108609     -2.080794
O       9.50120     13.62413      9.35095         0.299435     -0.039396     -0.431591
O       9.66665      5.85431      0.56860        -0.083464     -0.152366     -0.543197
O       9.54492      5.76278     13.83116         0.396717     -0.078169     -0.608108
O       9.49512      5.72410      5.01683         0.367332     -0.004891     -2.463387
O       9.68442      5.78062      9.30895         0.070719      0.066316     -0.379450
O       9.63091      9.59809      0.65540        -0.066190      0.137670     -3.311389
O       9.58236      9.54580     13.68620         0.078978      0.102790     -0.478973
O       9.70620      9.73419      4.97825        -0.391348     -0.295429     -0.840932
O       9.71264      9.44096      9.38108        -0.160297      0.256219     -1.267881
O       3.83863      1.88128      2.67037        -0.236203      0.246564      0.622739
O       3.87430      1.82655     15.84660        -0.004873      0.199421      0.082208
O       3.82567     13.33835      2.73794        -0.618427     -0.062065      0.476942
O       3.77870     13.48242     15.74633         0.125532     -0.213085      0.076402
O       0.02638      1.88249      2.76508         0.427191     -0.204967      0.265878
O      15.33935      1.97221     15.78351         0.569982     -0.057407      0.667169
O      15.33592     13.39434      2.66822        -0.352853      0.084148      0.591308
O      15.28607     13.53526     15.75475         0.475886     -0.529987      0.717606
O       3.82799      2.04314      6.99556         0.014223      0.079193      0.733121
O       3.86991     13.40451      7.07621        -0.543162      0.077675      0.520299
O       0.00514      1.84442      7.13914         0.010128      0.199090      0.244744
O      15.33921     13.41531      7.11749         0.148352      0.104028      0.207573
O       3.86200      1.87775     11.39314         0.014452      0.100111      0.180194
O       3.88218     13.41308     11.38574        -0.841946      0.245005      0.386674
O       0.06689      1.93488     11.35614        -0.047021     -0.017953      0.574293
O       0.02415     13.45713     11.45302        -0.084724     -0.209060      0.120557
O       3.81709      5.75079      2.81201        -0.124892     -0.869940      0.047314
O       3.81691      5.68860     15.69112        -0.031985      0.390078      0.946611
O      15.31049      5.71233      2.74468         0.802616      0.610987      0.378758
O      15.25380      5.80040     15.70499         1.321717     -0.395404      0.613446
O       3.88061      5.78536      7.05126        -0.842541     -0.381336      0.627535
O      15.35362      5.85294      7.03008        -0.479339     -0.475614      0.348967
O       3.83634      5.76958     11.44934         0.405642     -0.355136     -0.149152
O      15.33353      5.71684     11.53866         1.429895     -0.167041      0.299434
O       3.89085      9.66403      2.75992        -1.615959      0.168269      0.309263
O       3.75392      9.69155     15.74973         0.486529     -0.688439      0.074252
O       0.05712      9.59597      2.74667        -0.322415     -0.380809     -0.003536
O      15.29709      9.68253     15.77675         0.339925     -0.749168      0.539512
O       3.88824      9.57788      7.04953        -0.290210     -0.085763      0.391770
O       0.03516      9.61070      7.12895        -0.968927      0.012338      0.106821
O       3.85826      9.61241     11.41399         0.053311      0.117974      0.379706
O       0.02883      9.56566     11.39823        -0.048407      0.144772      0.834211
O       7.67006      1.76514      2.89264         0.999488      0.458061     -0.001074
O       7.72027      1.89068     15.92139        -0.389584      0.382783     -0.013126
O       7.63786     13.48138      2.79778         0.761185      0.050033      0.436505
O       7.70718     13.37298     15.73202        -0.176112      0.031470      0.230485
O       7.74584      1.91997      6.95393        -1.218125      0.165211      1.035223
O       7.72988     13.50006      7.13762        -1.018357     -0.028201     -0.026797
O       7.71546      2.05619     11.52837        -0.903176     -0.277515     -0.462611
O       7.72613     13.34139     11.46160        -0.676802      0.429014      0.139009
O       7.66796      5.79412      2.56961        -0.398944      0.308820      0.815881
O       7.66646      5.79123     15.89556        -0.441387     -0.537013      0.231554
O       7.77268      5.70799      7.13945        -0.723273      0.425794      0.146094
O       7.74355      5.71371     11.53700        -0.646421      0.064208     -0.700468
O       7.67656      9.45316      2.76329         0.814455      0.250837      0.337176
O       7.64841      9.64246     15.75863        -0.469609      0.386269      0.387324
O       7.74307      9.62170      7.15226        -0.411567     -0.591958      0.135793
O       7.71019      9.56998     11.43134         0.025159      0.469989      0.120863
O      11.59736      1.89546      2.83277        -0.908822     -0.240500     -0.201589
O      11.57218      1.99111     15.93543        -0.734168     -0.580833      0.470154
O      11.52423     13.40997      2.72788        -0.298985      0.215139      0.332274
O      11.52710     13.36136     15.75554        -1.023813      0.433346      0.788010
O      11.51748      2.00194      7.03421         0.441043     -0.773368      0.438948
O      11.53531     13.46984      7.20215        -0.703367     -0.276359     -0.349544
O      11.57570      1.83341     11.36454        -1.133276      0.031504      1.166079
O      11.51733     13.49992     11.45217        -0.070647      0.176002      0.360751
O      11.49194      5.65624      2.68732        -0.131856      0.136574      0.517842
O      11.58040      5.87958     15.85016        -1.560879      0.176913      0.433341
O      11.59729      5.78902      7.14723        -0.972635     -0.230780     -0.129377
O      11.65793      5.73773     11.50367        -2.696963      0.365710      0.534441
O      11.52077      9.69280      2.69885        -0.181691     -0.286258      0.109880
O      11.51394      9.50241     15.81123        -0.194536      0.484264      0.426637
O      11.52426      9.57823      7.05056         0.816297      0.432962      0.430411
O      11.60443      9.60131     11.43795        -1.589938     -0.386068      0.730671
O       1.85943      3.76861      2.69357         0.311905      0.438022      0.221326
O       1.95587      3.78633     15.77771        -0.193119      0.650216      0.411677
O       1.87641     15.27998      2.67531         0.189275      0.452895      0.355188
O       1.89817     15.34606     15.79009        -0.267588     -0.221131      0.175483
O      13.45082      3.79220      2.74315         0.048799      0.193850      0.347901
O      13.35357      3.88269     15.80553         0.334152     -0.007317      0.494318
O      13.46956     15.35724      2.81571        -0.201512     -0.603970      0.051083
O      13.39670      0.01803     15.80754        -0.102693     -0.740076      0.580279
O       1.81049      3.87159      7.21339         0.518353     -0.088951     -0.302897
O       1.98318      0.02631      7.03818         0.020293     -0.568860      0.527339
O      13.46279      3.79328      7.05311         0.262633      2.022295      0.353050
O      13.44653     15.33760      7.08726        -0.151832      0.535461      0.633806
O       1.93029      3.85536     11.45202         0.197568     -0.208099      0.014933
O       1.88854     15.34251     11.32168         0.453233      0.297833      0.451725
O      13.46312      3.74376     11.57110         0.120225      0.484322      0.310753
O      13.48575     15.34455     11.49493         0.117954     -0.186344      0.376585
O       2.03570      7.60613      2.71986        -0.820249      1.521997      0.348061
O       1.92943      7.56909     15.76725        -0.327050      1.618584      0.367790
O      13.29829      7.68150      2.68533         0.614721     -0.037146      0.364573
O      13.50678      7.73094     15.91911        -0.550945     -0.602835     -0.489396
O       1.91336      7.67438      7.11233         0.215870      0.411831      0.242150
O      13.49008      7.69559      7.15678        -0.259881      0.513874     -0.236254
O       1.95505      7.62115     11.42795        -0.324816      0.277173      0.248091
O      13.52203      7.63926     11.43758        -0.279052      0.304382      0.698783
O       1.88134     11.50627      2.67608        -0.117156     -0.867024      0.321091
O       1.80460     11.53502     15.78129         0.188544      0.274928      0.427391
O      13.43888     11.48791      2.68261         0.145741      0.626094      0.361418
O      13.47288     11.45816     15.80641        -0.661103      0.687227      0.254286
O       1.89892     11.48104      7.07724         0.304163      0.893920      0.703647
O      13.40009     11.54718      7.12692         0.428897     -0.739667     -0.295921
O       1.84742     11.49363     11.35706         0.578511      0.784139      0.768265
O      13.38789     11.58854     11.67723         0.599004     -1.053612     -0.528290
O       5.84357      3.79279      2.75803        -0.364652     -0.137383      0.341516
O       5.75062      3.81993     15.75744         0.194134     -0.623410      0.651027
O       5.57065     15.26399      2.79192         0.908442      0.711704      0.547907
O       5.90262     15.33055     15.78140        -0.809725     -0.332963      0.168468
O       5.81034      3.87263      7.20933        -0.228780      0.062198     -0.337764
O       5.67459      0.08601      7.04178         0.383011     -0.472405      0.536975
O       5.69102      3.78934     11.43637         0.333935      1.016998     -0.018751
O       5.81865      0.01482     11.33015         0.170839      0.407414      0.202411
O       5.57977      7.66465      2.60712         0.595467     -0.957953      0.845518
O       5.84849      7.71114     15.83863        -1.136828     -0.363955     -0.414364
O       5.77528      7.60186      7.13664         0.423871      0.932879      0.314156
O       5.73549      7.74537     11.38515         0.313755     -1.395486      0.214225
O       5.84731     11.51650      2.94817        -0.158068     -0.394992     -0.272311
O       5.65355     11.49503     15.77522         0.479266      0.142661      0.058342
O       5.81566     11.49285      6.94570         0.128347      0.529219      0.715299
O       5.73783     11.55895     11.45476         0.201767     -0.779537      0.226878
O       9.49993      3.81466      2.67666         0.253537     -0.442048      0.326052
O       9.67400      3.83315     15.98543        -0.179659      0.477414      0.157484
O       9.50549      0.02437      2.77870         0.961446     -0.864473      0.591364
O       9.62873      0.03744     15.88596         0.355889     -1.101029     -0.036525
O       9.60569      3.79386      7.16451         0.121018      0.765619     -0.066812
O       9.55612     15.35510      7.04590         0.595768     -0.325885      0.467818
O       9.76442      3.86193     11.42940        -0.467548     -0.041423      0.544881
O       9.50237      0.05710     11.54822         0.362945     -0.294118      0.031830
O       9.66575      7.61953      2.74386        -0.109679      0.705025      0.200488
O       9.47389      7.71928     15.82363         0.659444      0.076899      0.630787
O       9.64898      7.68619      7.04807        -0.134659     -0.078495      0.214056
O       9.53590      7.61485     11.47100         0.877247      0.484238      0.443564
O       9.45348     11.52387      2.67825         0.495362     -0.501344      0.293314
O       9.65755     11.57096     15.79920        -0.053406     -0.648263      0.518590
O       9.50867     11.52381      7.19019         0.834276      0.496503     -0.236416
O       9.70645     11.54310     11.35352        -0.213263     -0.538993      0.393960
