  # total energy = -7881.48821469 
CRSYTAL
PRIMVEC
    15.3600000000000000    0.0000000000000000    0.0000000000000000
     0.0000000000000000   15.3600000000000000    0.0000000000000000
     0.0000000000000000    0.0000000000000000    17.440000000000000
PRESSURE
0.739568 0.784447 2.33908 -0.124481 -0.167776 -0.02923
PRIMCOORD
320 1
Pb       3.80152      3.85262      4.42297        -0.027868     -0.457864     -0.310673
Pb       3.97843      3.76324     17.36133        -0.935728      0.216397     -0.389716
Pb       3.78958     15.31226      4.39077         0.300775     -0.118399     -0.763001
Pb       3.90547      0.03072     17.39664        -1.146891     -0.418914     -0.511496
Pb      15.34655      3.81975      4.45021         0.058887     -0.377642     -0.733923
Pb       0.15252      3.86206      0.07025        -0.178105     -0.359163     -0.441278
Pb       0.06036     15.28880      4.33685        -0.336763      0.079759     -0.602513
Pb      15.08654     15.28355      0.02728         0.963228      0.084975     -0.555843
Pb       3.73697      3.97937      8.55659         0.160910     -1.238245      0.867083
Pb       3.82861     15.34653      8.85001         0.081485      0.048511     -0.864576
Pb      15.03198      3.94663      8.63222         0.940572     -0.244697     -0.370415
Pb      15.26284      0.19303      8.71693        -0.228466     -0.846690     -0.494631
Pb       3.87860      3.75358     12.93152        -0.412414     -0.197704      0.145756
Pb       3.72727     15.21409     12.92473         0.315667      0.730302      0.356630
Pb      15.35528      3.66278     13.13924        -0.071263      0.269470     -0.555100
Pb       0.03344      0.01842     12.91349        -0.466179     -0.319159      0.664179
Pb       3.94537      7.67133      4.25774        -0.893527      0.436318      0.301258
Pb       3.66746      7.63275      0.04501         0.717007     -0.443150     -0.881387
Pb       0.22762      7.70608      4.30675        -0.684373     -0.025412      0.185578
Pb      15.29232      7.78793     17.34121        -0.270069     -0.377524     -0.194188
Pb       3.97352      7.62419      8.73278        -0.451860      0.600696     -0.337888
Pb      15.33969      7.63473      8.68725         0.016524     -0.032128      0.120783
Pb       3.80562      7.62211     13.06749         0.082043      0.291405     -0.148908
Pb       0.08618      7.69170     13.13321        -0.407813     -0.452133     -0.525461
Pb       3.61259     11.48852      4.31409         1.173648     -0.024034     -0.242791
Pb       4.03666     11.29731     17.31431        -1.499488      1.075982     -0.045396
Pb       0.17652     11.67459      4.16659        -1.227523     -0.393528      0.512374
Pb      15.24171     11.47302     17.30060         0.318387      0.053067     -0.005620
Pb       3.77998     11.60854      8.72496         0.230494     -0.462213     -0.317016
Pb      15.33854     11.33766      8.68182        -0.196967      0.723634     -0.057377
Pb       3.97540     11.48730     12.96394        -0.526427     -0.178354      0.190513
Pb       0.15405     11.47241     13.16377        -0.526260      0.355185     -0.500202
Pb       7.70451      3.71025      4.42308         0.110531      0.025288     -0.633731
Pb       7.68034      3.89850     17.30580        -0.289123     -0.176946     -0.070808
Pb       7.69737      0.03022      4.36108        -0.281877     -0.358751     -0.416776
Pb       7.37704     15.32072     17.32620         1.458962      0.253828      0.215717
Pb       7.65411      3.81761      8.69628         0.019586     -0.056544      0.060477
Pb       7.67614     15.25055      8.57696         0.080495      0.529034      0.709055
Pb       7.83821      4.00436     13.28776        -0.099248     -0.419302     -1.112177
Pb       7.67789      0.16250     13.02773        -0.063166     -0.083470     -0.399314
Pb       7.53865      7.48547      4.26984         1.056777      0.689751     -0.633151
Pb       7.61417      7.64764      0.00040        -0.211321      0.187052     -0.469050
Pb       7.59179      7.88478      8.62710         0.213479     -0.853159      0.413340
Pb       7.60916      7.60575     12.96376        -0.158913      0.306664      0.370986
Pb       7.69842     11.37771      4.38318        -0.143756      0.320759     -0.484628
Pb       7.52170     11.65613     17.32176         1.024887     -0.613007      0.087193
Pb       7.69976     11.48486      8.68866        -0.026113      0.081708      0.021690
Pb       7.88575     11.65041     13.06707        -0.844772     -0.776515     -0.484594
Pb      11.58135      3.75457      4.37153        -0.509554      0.027375     -0.469597
Pb      11.56669      3.81391      0.05906         0.259442      0.041946     -0.068927
Pb      11.59246     15.33592      4.26754        -0.221209      0.081715      0.024984
Pb      11.38256     15.27247     17.23909         0.169800      0.081419      0.475339
Pb      11.56813      4.07580      8.69267        -0.474657     -0.632565     -0.386565
Pb      11.45922     15.27494      8.64388         0.359276      0.453455     -0.333784
Pb      11.55020      3.68335     13.32092         0.039861      0.407631     -1.600504
Pb      11.42722     15.33237     13.05148         0.321860      0.381263     -0.514163
Pb      11.58337      7.68797      4.20480        -0.759338      0.010025     -0.057986
Pb      11.41494      7.57913      0.01687         0.374369      0.127277      0.500015
Pb      11.56368      7.69683      8.64906        -0.190799     -0.453875      0.293014
Pb      11.38190      7.70662     13.02451         0.652388     -0.404607     -0.165648
Pb      11.57384     11.37081      4.40546        -0.096987      0.109071     -0.686419
Pb      11.34755     11.49314     17.34115         0.248331     -0.269941      0.434652
Pb      11.50548     11.51956      8.87018         0.146724      0.108480     -1.068417
Pb      11.46172     11.43295     12.96343         0.433593      0.262212     -0.215158
Ti       1.87855      1.91397      2.39112        -0.221249     -0.544298     -1.538286
Ti       1.75303      1.79260     15.47383         1.572408      0.675589     -0.485542
Ti       1.93635     13.36599      2.09381         0.628919      1.178403     -0.376200
Ti       1.87003     13.35610     15.41130         0.627382      0.678826      1.772140
Ti      13.38057      1.85908      2.21435         0.343677      0.487946      1.636133
Ti      13.37216      1.86243     15.40451         0.670892      0.398877      1.534687
Ti      13.32549     13.43055      2.21407         0.911882     -0.066283      1.015439
Ti      13.32491     13.31714     15.34050         0.851316      0.063295      0.536208
Ti       1.87795      1.89714      6.75108        -0.138482     -0.115169      1.229263
Ti       1.85770     13.49331      6.78408        -0.244878     -0.340225      1.264544
Ti      13.32224      1.89008      6.57185        -0.195430     -0.532239      1.269963
Ti      13.47633     13.37127      6.67772         0.066850      0.076328      1.051726
Ti       1.83214      1.87174     10.93035         0.793235      0.815744      0.246602
Ti       1.86999     13.37433     10.94921        -0.555547     -0.452257      1.329406
Ti      13.32332      1.91733     10.92392        -0.435184      0.357212      3.410154
Ti      13.40370     13.48431     11.02014         0.297127     -0.224855      0.857405
Ti       1.93845      5.69016      2.32313         0.188171      0.112766     -0.457655
Ti       1.90062      5.72080     15.41941         0.456225     -1.020695      0.839422
Ti      13.49352      5.70057      2.35348        -0.739050      0.237494      0.044333
Ti      13.45930      5.72031     15.50992        -0.187004     -0.274929      1.014125
Ti       1.96843      5.78673      6.72371        -1.047636     -0.068571     -0.824061
Ti      13.40704      5.78633      6.40680        -0.275232      0.001533      1.634786
Ti       1.84776      5.66826     11.06396        -0.551640      0.868729      0.324897
Ti      13.34133      5.81222     11.17645         0.457416     -0.700917      2.001807
Ti       1.84429      9.53887      2.10666         1.171480      0.581458      1.222354
Ti       1.89746      9.56765     15.33349         0.437708      0.615503      0.211750
Ti      13.47019      9.64188      2.27456        -0.906890     -0.264206     -0.321099
Ti      13.29680      9.52457     15.29780         1.167839      0.583351      1.857190
Ti       1.84269      9.59611      6.65956         0.931752      0.105210      1.310775
Ti      13.39524      9.49853      6.66345         0.476874      1.023612      0.080529
Ti       1.85579      9.55178     11.03537         0.868292     -0.423394      1.205556
Ti      13.46578      9.63654     11.09256        -0.100181     -0.347338      1.265543
Ti       5.73722      2.00002      2.30308        -0.129135     -1.413222      1.628736
Ti       5.68661      1.87796     15.22469        -0.392844      0.809233      3.239521
Ti       5.79308     13.44180      2.34369        -0.558176     -0.060460      1.908785
Ti       5.70816     13.39118     15.25752        -0.827901      0.433220      0.092322
Ti       5.73655      1.86114      6.75449        -0.596923      0.083327      1.577248
Ti       5.79603     13.36904      6.76202        -0.790668      0.337870     -0.514841
Ti       5.80791      1.93227     10.91371        -0.153878     -0.595496      1.728821
Ti       5.80731     13.44989     11.07033        -0.066268     -0.045271      0.570253
Ti       5.71143      5.65307      2.32734         0.704612      0.826350      0.418246
Ti       5.71598      5.78001     15.29327         0.019276      0.309955      1.814256
Ti       5.79257      5.69537      6.57533        -0.108302      0.039015      1.266414
Ti       5.67710      5.70814     10.97744         1.200592      0.061302      0.296760
Ti       5.71838      9.65794      2.26678         0.084117     -0.096171      2.225965
Ti       5.76940      9.53667     15.31513         0.047059     -1.081215     -0.330296
Ti       5.68356      9.61838      6.65680        -0.617803      0.619883      0.336232
Ti       5.72346      9.55972     11.02228        -0.014232      0.533991      1.326288
Ti       9.56412      1.78585      2.09936        -0.213136      1.894562      0.797841
Ti       9.52933      1.91577     15.41619        -0.521718     -1.000703     -0.165778
Ti       9.54705     13.43843      2.32586        -0.410657     -1.112043      0.081751
Ti       9.58031     13.42358     15.26127        -0.630151      0.254457      2.706394
Ti       9.56689      1.95420      6.71229         0.847035     -0.206075      2.549833
Ti       9.64056     13.42806      6.61623         0.264768     -0.676944      0.806201
Ti       9.54380      1.94194     10.89964         0.499991      0.677423     -0.055339
Ti       9.58894     13.53016     10.90646        -0.126988     -0.466728      1.473347
Ti       9.65566      5.56675      2.41849        -0.485546      1.045082      1.791443
Ti       9.67331      5.76464     15.38689        -0.905784     -0.233831      0.436684
Ti       9.49113      5.77385      6.62850         1.325280      0.540133     -0.939359
Ti       9.60055      5.70506     11.04433        -0.127390     -0.189615      2.086939
Ti       9.53139      9.55022      2.24660         0.188851     -0.172707      0.831626
Ti       9.59631      9.51744     15.36351        -1.600758      0.702597      0.676726
Ti       9.61347      9.53619      6.67298        -0.095649      0.776796     -0.093215
Ti       9.53278      9.55139     11.05237         0.031891     -0.087423      0.789881
O       1.83148      1.98209      0.58300         0.302899     -0.237814      1.311813
O       1.73598      1.82862     13.67095        -0.128699      0.236252     -0.105317
O       2.04889     13.44655      0.32568        -0.345168     -0.066760      1.639040
O       1.86863     13.35020     13.68090         0.194354      0.102727     -1.354304
O      13.36533      1.74985      0.48562         0.152459      0.078578     -0.894169
O      13.44201      2.01339     13.68334         0.003784     -0.233794     -0.418302
O      13.37432     13.54431      0.45123        -0.177010     -0.511187      0.361803
O      13.20553     13.21027     13.62338         0.211762      0.462989     -0.399674
O       1.86617      1.86417      5.00273         0.099231     -0.112442     -0.775195
O       1.67690     13.52786      5.04360         0.510338     -0.028260     -1.031593
O      13.23046      2.00704      4.82052         0.271386     -0.640723     -0.053977
O      13.46967     13.39124      4.93662         0.236860      0.044605     -0.470396
O       1.85248      1.93648      9.15190        -0.278421     -0.043686      1.320236
O       1.84801     13.39967      9.23982         0.298256     -0.022913     -0.461231
O      13.33483      1.91871      9.23759         0.149469      0.226923     -2.195897
O      13.33814     13.48513      9.29924         0.026667     -0.183314     -0.784450
O       2.12413      5.66562      0.53446        -0.813666      0.329534      0.920975
O       1.90397      5.66353     13.68891        -0.089544      0.129063     -0.673903
O      13.39105      5.66714      0.58485         0.073086      0.244282      0.212235
O      13.23120      5.74291     13.82607         0.306229     -0.427324     -1.709115
O       1.96272      5.83906      4.94419        -0.051716     -0.167628      0.393955
O      13.38149      5.66555      4.67129         0.283458      0.236703      0.103231
O       1.80762      5.68536      9.30070         0.188401      0.051173     -0.441638
O      13.37867      5.74563      9.45752        -0.067983     -0.019201     -1.829966
O       1.96183      9.67762      0.36134        -0.296092     -0.811333      0.457948
O       1.89568      9.64075     13.53602        -0.149998     -0.343401      1.127136
O      13.50916      9.77227      0.50206        -0.246941     -0.747243      0.740949
O      13.36456      9.66531     13.60625        -0.046181     -0.091326     -1.480073
O       1.92871      9.55194      4.91348        -0.373809     -0.048111     -0.023021
O      13.41293      9.55138      4.92076        -0.159605      0.177966     -0.419083
O       1.83032      9.46277      9.30567        -0.076323      0.191728     -0.740433
O      13.54697      9.56389      9.36028        -0.195562     -0.284352     -0.789124
O       5.74064      2.05169      0.58009        -0.147613     -0.388020     -0.917307
O       5.80541      1.89331     13.56414        -0.132086      0.002749     -2.381473
O       5.75197     13.48767      0.61841         0.199597     -0.052344     -1.712049
O       5.64757     13.40293     13.50861         0.259522      0.289842     -0.077895
O       5.76070      1.97982      5.05668         0.048838     -0.277616     -1.758390
O       5.73605     13.33793      5.01443         0.142669     -0.030080      0.226082
O       5.90576      1.74232      9.20789        -0.520596      0.541752     -0.824300
O       5.69903     13.41493      9.34153         0.201118      0.135590     -1.286414
O       5.78480      5.58812      0.59814        -0.138812      0.230292     -0.426784
O       5.74514      5.84839     13.57696        -0.228096     -0.358966     -1.062165
O       5.68336      5.58901      4.81721         0.234453      0.599998      0.388022
O       5.77123      5.79562      9.21192        -0.262505      0.008417      0.052250
O       5.79734      9.70974      0.55908         0.029433     -0.463356     -1.575537
O       5.71912      9.36659     13.57573         0.008381      0.643419      0.097672
O       5.60072      9.80380      4.91021         0.235238     -0.371298      0.044761
O       5.71209      9.58680      9.26146         0.171363     -0.325480     -0.086644
O       9.52284      2.09808      0.35781         0.083909     -0.718896      0.022870
O       9.48413      1.71632     13.63834         0.240258      0.437590      0.254562
O       9.48345     13.35180      0.56284         0.193167     -0.018508      0.375878
O       9.65367     13.57175     13.56694        -0.095411     -0.336132     -1.710002
O       9.59413      1.85481      5.01258        -0.242678     -0.050095     -1.355205
O       9.48351     13.61490      4.89510         0.443191     -0.482288     -0.607970
O       9.48691      1.93835      9.09191         0.397650      0.345232      1.448362
O       9.63935     13.36600      9.17973         0.020756     -0.084076     -0.182512
O       9.74027      5.60765      0.71797        -0.258858     -0.072209     -2.212073
O       9.61869      5.76778     13.63529         0.112864      0.102089      0.318766
O       9.50677      5.89640      4.83569        -0.207051     -0.605040      1.002976
O       9.70310      5.75569      9.34676        -0.172590     -0.283645     -1.746204
O       9.53475      9.63627      0.47906         0.082731     -0.088005      0.163167
O       9.53400      9.58531     13.61024         0.322441     -0.252664      0.264619
O       9.63537      9.51654      4.91682        -0.179779      0.177710      0.534858
O       9.47734      9.61571      9.31945         0.067307     -0.271655     -1.043526
O       3.81833      1.86858      2.84842         0.043574      0.485317     -0.174564
O       3.76184      2.03363     15.74331         0.986473     -1.155783     -0.062339
O       3.79198     13.36511      2.82128        -0.209455      0.235688     -0.417408
O       3.87846     13.47335     15.80344         0.118820     -0.013883     -0.298887
O      15.27264      2.00678      2.75000         1.008390     -0.678749      0.020801
O      15.30394      1.84955     15.89565        -1.157866      0.382115     -0.005776
O       0.00681     13.46464      2.64790         0.428812     -0.020877     -0.377479
O      15.33790     13.34480     15.75404        -0.653405     -0.173232     -0.087312
O       3.77514      1.79036      7.18940         0.406973      0.363429     -0.265949
O       3.77218     13.46093      7.14286         0.542398      0.140466      0.139489
O      15.24021      1.97988      7.00807         0.037965     -0.272954      0.225728
O      15.33571     13.40874      7.25472        -0.477478      0.141668     -0.330218
O       3.78877      1.90328     11.45096        -0.337918     -0.322731     -0.593107
O       3.84126     13.42499     11.42573        -1.095227     -0.193306     -0.288641
O      15.28045      1.84589     11.42970         0.767083      0.487390     -0.457461
O      15.30770     13.42643     11.44828         0.530480      0.138117     -0.149042
O       3.79341      5.72071      2.76727         0.222484     -0.153948      0.095072
O       3.86082      5.88167     15.79635        -0.492124     -0.645786     -0.082932
O      15.35830      5.72708      2.78460         0.151880      0.109752     -0.291530
O      15.31984      5.79380     15.90935         0.919490     -0.264926     -0.109757
O       3.87716      5.77177      7.11926        -0.320074      0.033352     -0.437221
O      15.25662      5.68349      6.89898         0.274701     -0.079251      0.347118
O       3.82145      5.77236     11.45717        -0.301581     -0.379793     -0.248960
O      15.30772      5.79067     11.53188         0.360439     -0.314598      0.079730
O       3.74352      9.63546      2.66001         0.028115     -0.111826     -0.172002
O       3.81681      9.51168     15.66779         0.310160      0.055437      0.460400
O      15.34427      9.61958      2.66099         0.668085     -0.421222     -0.111930
O      15.32749      9.58503     15.73060         0.340027      0.090698     -0.067749
O       3.79255      9.63897      7.09155        -0.179974     -0.523697      0.123520
O      15.31147      9.46304      7.10702         0.964409      0.401606     -0.111529
O       3.81881      9.59301     11.47426         0.136127      0.087864     -0.423918
O      15.34267      9.47938     11.58291        -0.233346      0.220088     -0.330625
O       7.61651      1.89919      2.59138         0.308047      0.043351      0.524493
O       7.59779      1.83888     15.73444        -0.106182      0.223621      0.106115
O       7.69997     13.46052      2.83996        -0.401923     -0.156538     -0.249608
O       7.63132     13.44117     15.70048        -0.069747     -0.073799     -0.008831
O       7.66400      1.93142      7.22021         0.154908      0.106570     -1.016418
O       7.72430     13.32616      7.14563        -0.389387     -0.063320     -0.412281
O       7.69934      2.00389     11.42792        -0.555042     -0.268528     -0.102498
O       7.69788     13.42064     11.50701         0.632163      0.091347     -0.473965
O       7.65535      5.72591      2.72020        -0.676612     -0.056845      0.157378
O       7.68740      5.78999     15.72890         0.163459     -0.318153      0.243095
O       7.64919      5.63228      7.03756        -0.523342      0.409960     -0.273975
O       7.60491      5.70344     11.56190         0.238280     -0.187642     -0.649575
O       7.62469      9.50222      2.74911        -0.266378      0.086646     -0.046391
O       7.64387      9.48331     15.81313         0.503160      0.593015     -0.125662
O       7.61070      9.67742      7.12721         0.356470     -0.232357     -0.485247
O       7.67129      9.61599     11.65221        -0.440417     -0.201956     -1.158057
O      11.47075      1.79712      2.53380        -0.481841      0.230403      0.227211
O      11.42138      1.88487     15.70087         1.022750     -0.029350      0.131143
O      11.51204     13.44110      2.72747        -0.608533     -0.019085     -0.169814
O      11.44225     13.30634     15.86394         0.385480      0.818011     -0.485337
O      11.47549      1.84124      7.18184        -0.375443      0.305806     -0.606804
O      11.56977     13.27023      7.04266        -0.457507      0.546267      0.143580
O      11.45135      1.80251     11.51727        -0.367686      0.397665     -0.459865
O      11.45318     13.44824     11.34782        -0.390473      0.041117      0.226615
O      11.51469      5.62586      2.82796         0.067763      0.296026     -0.387352
O      11.52848      5.72192     16.00060        -0.892536      0.071090     -0.423810
O      11.55335      5.92715      7.00903        -0.497924     -0.599495      0.035537
O      11.47797      5.69443     11.58540        -0.335780      0.318692     -0.190435
O      11.49623      9.61194      2.73724         0.056846      0.489559     -0.245383
O      11.46038      9.52187     15.69664        -0.302424     -0.056067      0.347183
O      11.52272      9.42223      7.09163        -0.493627      0.484133      0.013587
O      11.50818      9.52302     11.40184        -0.320761      0.333987      0.052396
O       1.84419      3.85346      2.78841         0.363026     -0.380038      0.288877
O       1.90270      3.78458     15.89864        -0.545639      1.040545     -0.309544
O       2.02317     15.32960      2.69050        -0.870953     -0.101585      0.094199
O       1.84356     15.34814     15.81681         0.477543     -0.837272      0.130215
O      13.34511      3.74098      2.72682         0.135996      0.649151     -0.337114
O      13.41482      3.80169     15.95422        -0.015089     -0.609688     -0.550122
O      13.46740     15.34031      2.75593        -0.105368     -0.512221     -0.226346
O      13.43302     15.26282     15.71573        -0.582112      0.331301     -0.073968
O       1.85417      3.81673      7.09264         0.482138      0.662916     -0.156111
O       1.80272      0.00020      7.33392         0.127857      0.171905     -0.820754
O      13.26321      3.78893      6.96750         0.200823      1.544935      0.065938
O      13.35905     15.35221      7.03645         0.267978     -0.325298     -0.113581
O       1.89060      3.80680     11.45245        -0.185743     -0.580278      0.002137
O       1.86993     15.31289     11.39271         0.105857      0.155283     -0.339428
O      13.29392      3.74867     11.49021         0.515295      0.546696      0.051054
O      13.38389      0.04384     11.46107         0.046097     -0.895781     -0.019338
O       1.92124      7.63905      2.75917         0.005018      0.539803     -0.850972
O       1.90544      7.62026     15.89266        -0.370606      0.860357     -0.354796
O      13.31745      7.69747      2.62316         0.704818     -0.225934     -0.240839
O      13.47227      7.67332     15.79211        -0.387694      0.253090      0.383703
O       1.87460      7.61717      7.18476         0.162704      0.310940     -0.355123
O      13.48747      7.63785      7.11098        -0.071580     -0.610097     -0.318298
O       1.94733      7.65054     11.54233        -0.365742     -0.367056     -0.202014
O      13.34003      7.65256     11.61148         0.298978      0.399871     -0.171162
O       1.92007     11.46354      2.56440        -0.441476      0.424019     -0.020841
O       2.06490     11.46857     15.84730        -0.820270     -0.345027     -0.784524
O      13.45921     11.56570      2.75498        -0.155166     -0.170015     -0.234460
O      13.39763     11.43362     15.87850        -0.370484      0.319973     -0.569102
O       1.90775     11.53441      7.10019        -0.416887     -0.950063     -0.187453
O      13.49948     11.41081      7.16226        -0.422536      0.108915     -0.141195
O       1.77915     11.44289     11.46523         0.551911      0.916812     -0.533424
O      13.44180     11.53759     11.39142        -0.410803     -0.471378     -0.002636
O       5.68472      3.82253      2.85204         0.097715     -0.366871     -0.268667
O       5.70482      3.85056     15.70892         0.482720     -0.157198     -0.250896
O       5.78824     15.28690      2.79026        -0.539133      1.106535     -0.012296
O       5.70903     15.33197     15.81381        -0.275467      0.368485     -0.668094
O       5.68233      3.79807      7.07098         0.057807      0.734167      0.180413
O       5.79959     15.32445      7.09954         0.009449     -0.622984     -0.003724
O       5.69029      3.79699     11.25284        -0.212802      0.549714      0.198311
O       5.75260      0.02043     11.37101        -0.012209     -0.013302      0.337457
O       5.57004      7.69812      2.69772         0.969282     -0.638180     -0.356016
O       5.74760      7.66112     15.83371         0.173563      0.051411      0.326923
O       5.74329      7.66463      6.97847         0.144503     -0.106910     -0.080366
O       5.70398      7.68536     11.37599         0.222723     -0.469011     -0.163172
O       5.75029     11.53569      2.61903         0.205428     -0.368676      0.430172
O       5.74298     11.50109     15.62764         0.112110     -0.348917      0.271741
O       5.68976     11.49844      7.30200         0.112517      0.226996     -0.564232
O       5.75461     11.54379     11.43569         0.175190     -0.812699      0.046086
O       9.49396      3.69626      2.87362         0.504534     -0.075218     -0.529049
O       9.50791      3.81177     15.59105         0.203646      0.663442      0.244484
O       9.52214      0.01932      2.59229         0.100589     -0.810489      0.211260
O       9.58433     15.28040     15.77145        -0.129009      0.174333      0.050721
O       9.63873      3.92603      7.07436         0.004824     -0.516647     -0.204947
O       9.60407     15.26989      7.08288        -0.116927      0.509960     -0.050481
O       9.60599      3.81111     11.61184        -0.077934     -0.090461     -0.555408
O       9.49981      0.07852     11.26265         0.091227     -1.390407      0.123641
O       9.58639      7.65181      2.70942         0.109720      0.079663     -0.315902
O       9.54018      7.61013     16.00900         0.595501      0.266825     -0.751705
O       9.45492      7.65013      7.16802         0.107841      0.150152     -0.087678
O       9.55516      7.60624     11.46014        -0.016852      0.505449     -0.129144
O       9.45122     11.46681      2.80425         0.732030      0.261570     -0.321526
O       9.64223     11.53759     15.71863        -0.795427     -1.107485     -0.275416
O       9.68649     11.45439      7.07988        -0.301369     -0.322422     -0.113579
O       9.58689     11.43801     11.42553         0.044651      1.294362     -0.077228
