  # total energy = -7867.30744454 
CRSYTAL
PRIMVEC
    15.010000000000000    0.0000000000000000    0.0000000000000000
     0.0000000000000000   15.010000000000000    0.0000000000000000
     0.0000000000000000    0.0000000000000000    16.400000000000000
PRESSURE
18.7188 18.9502 9.33064 -0.04655 -0.267983 -0.022298
PRIMCOORD
320 1
Pb       3.87963      3.82918      4.23487        -0.654748     -0.205314     -0.462180
Pb       3.72467      3.72436      0.05105         0.429911      0.059281     -0.109747
Pb       3.67526      0.04579      4.09878        -0.398865     -0.590940      0.342306
Pb       3.69749     14.91425     16.39671         0.423178      0.106514      0.134273
Pb      14.96637      3.68905      4.06833         0.314686      0.143729     -0.077667
Pb       0.02484      3.64007     16.34143        -0.394839      0.419933      0.610667
Pb      15.00085     15.00597      4.10994         0.570908     -0.245835     -0.268144
Pb      14.95772     14.91415      0.09631        -0.073490     -0.372400      0.268446
Pb       3.69432      3.78730      8.22632        -0.126887     -0.067420      0.247246
Pb       3.64233     14.93468      8.10492         0.337015      0.444266      0.482420
Pb      14.92971      3.79916      8.29228         0.504035      0.034815      0.379102
Pb      14.91268     14.97502      8.15291         0.468249      0.077340      0.281337
Pb       3.57877      3.74812     12.30139         0.259278     -0.010643      0.346770
Pb       3.70129     14.95084     12.37099         0.226208      0.170519     -0.040000
Pb      14.98336      3.69802     12.40039        -0.148993      0.075062     -0.495083
Pb      15.00670     14.95210     12.38515        -0.218366      0.554899     -0.018794
Pb       3.80704      7.39417      4.10381        -0.191517      0.577253     -0.086791
Pb       3.72941      7.40193      0.07297         0.039081      0.310420     -0.164869
Pb      14.99186      7.46537      4.13782         0.042617      0.585548      0.130384
Pb      14.97486      7.51760     16.38181         0.333627     -0.170440      0.257713
Pb       3.76541      7.49031      8.04031        -0.316552     -0.477109      1.095759
Pb      14.96570      7.50147      8.29608         0.188321     -0.288774      0.634608
Pb       3.72096      7.61503     12.26916         0.142364     -0.553407      0.552552
Pb      14.96753      7.42577     12.37620         0.157262      0.073810     -0.212781
Pb       3.75249     11.27174      4.29678        -0.169249     -0.420407     -0.606615
Pb       3.76954     11.16982     16.29222        -0.521457      0.470217      0.771971
Pb       0.08846     11.23997      4.08821         0.213809     -0.012681     -0.029673
Pb      14.97789     11.28271      0.01649         0.175464      0.276435      0.459785
Pb       3.85597     11.25489      8.13795        -0.732785      0.115864      0.378153
Pb      15.00077     11.26430      8.23120         0.069009     -0.300100      0.680459
Pb       3.76722     11.34077     12.26597        -0.120928     -0.041642      0.371367
Pb       0.02553     11.28073     12.34466        -0.161385     -0.298643     -0.059056
Pb       7.49154      3.63634      4.06522         0.253859      0.779232     -0.146525
Pb       7.49169      3.71611     16.32726        -0.334687      0.443835      0.744438
Pb       7.46222     14.92146      4.10746         0.395753      0.186930     -0.311962
Pb       7.37366      0.00229      0.00803        -0.047613     -0.055394      0.320570
Pb       7.42265      3.69510      8.14229         0.218072     -0.084324      0.790217
Pb       7.54856      0.12171      8.12448        -0.130877     -0.291809      0.683728
Pb       7.42094      3.76464     12.28052        -0.322549     -0.130998     -0.213135
Pb       7.49705     14.88906     12.39675        -0.471146      0.569250     -0.742058
Pb       7.48351      7.53919      4.04597        -0.184346     -0.410150      0.134698
Pb       7.48409      7.55836     16.36779         0.186715     -0.571120      0.176489
Pb       7.43486      7.50532      8.28124         0.210498      0.023842      0.285842
Pb       7.46808      7.49998     12.35189        -0.268405     -0.149287     -0.412591
Pb       7.68346     11.28550      4.14101        -0.643714     -0.395066      0.221678
Pb       7.54635     11.22194     16.37585        -0.105148     -0.013717      0.336427
Pb       7.54889     11.31511      8.10298        -0.046997     -0.167632      0.934175
Pb       7.47894     11.19627     12.26486        -0.169869      0.249527      0.401209
Pb      11.12825      3.76745      4.07119        -0.312823      0.101155     -0.035978
Pb      11.23247      3.63733     16.35105        -0.248620      0.497488      0.281410
Pb      11.26564      0.00469      4.10493        -0.338584     -0.180182     -0.130982
Pb      11.13927     14.90517      0.09480         0.540547      0.111775      0.117621
Pb      11.14237      3.73919      8.12252         0.081432      0.167857      0.468994
Pb      11.16709      0.06381      8.17858         0.177180     -0.639470      0.543366
Pb      11.23862      3.70007     12.38356         0.608520      0.140052      0.069281
Pb      11.23241      0.10113     12.36498         0.111192     -0.239054     -0.144078
Pb      11.36903      7.47197      4.14858        -0.574757      0.363915      0.045757
Pb      11.26758      7.52618      0.01728        -0.171039     -0.331954     -0.060179
Pb      11.21730      7.47537      8.20223        -0.201497      0.475586      0.732744
Pb      11.35345      7.49004     12.30308        -0.444255     -0.027757      0.207771
Pb      11.45205     11.14503      4.11621        -0.742208     -0.051365      0.037760
Pb      11.38592     11.12192     16.38837        -0.559387      0.741716      0.738586
Pb      11.26019     11.19802      8.22957         0.087373      0.427567      0.658159
Pb      11.27282     11.28962     12.26707         0.031338     -0.319444      0.273230
Ti       1.90566      1.91253      2.11259        -0.920506     -1.059874      0.416976
Ti       1.85302      1.80370     14.51091         0.103550      0.194106     -0.968198
Ti       1.94603     13.12469      2.07883        -1.087770     -0.359026      0.491088
Ti       1.81267     13.12859     14.44843        -0.169864     -0.846861      0.301203
Ti      13.05746      1.89416      2.14891         0.115674     -0.411234     -0.766776
Ti      13.07338      1.75651     14.57525         0.622478      0.893313     -0.794645
Ti      13.11723     13.15207      2.23134         1.024611     -0.485663     -2.086259
Ti      13.01089     13.12021     14.41543         1.399425     -0.278295      0.908681
Ti       1.79430      1.90775      6.30705         0.033847     -0.245103     -0.957136
Ti       1.89501     13.04450      6.32738        -0.039986      0.081395     -1.931597
Ti      13.15734      1.90306      6.18884        -0.757039     -0.186570     -0.899842
Ti      13.22065     13.08718      6.23365        -1.203800      0.154705     -0.325508
Ti       1.85075      1.87391     10.35208        -1.317686      0.380986     -0.315728
Ti       1.79946     13.13925     10.39304         0.610406      0.085261     -0.881906
Ti      13.08515      1.82269     10.28931         1.073129      0.776627      0.491134
Ti      13.03826     13.18459     10.36080         1.046878     -1.548177     -0.657960
Ti       1.76908      5.58588      2.14082         0.622203      0.789618      0.038060
Ti       1.88896      5.64489     14.47750         0.087297     -0.229508     -0.830885
Ti      13.05448      5.61057      2.14129         0.632604      0.374998     -0.749844
Ti      13.13041      5.56914     14.44707        -0.139420      0.110856     -0.716730
Ti       1.78465      5.62748      6.21863         1.003653     -0.972401     -0.303055
Ti      13.12972      5.62811      6.24378        -0.186799     -0.100264      1.078872
Ti       1.81403      5.72896     10.37493        -1.159613     -2.209222     -0.945534
Ti      13.05620      5.60330     10.34700         0.504907     -0.510784      0.213492
Ti       1.89940      9.35005      2.11581        -0.132256      0.510972     -0.207774
Ti       1.88042      9.38069     14.43964        -0.226386      0.428088      1.121458
Ti      13.18549      9.35492      2.15924        -1.173356     -0.178786      0.566905
Ti      13.16897      9.36268     14.39817         0.259840      0.764666     -0.191066
Ti       1.78355      9.28069      6.26854         1.245021      0.771107     -0.434245
Ti      13.14050      9.33837      6.35954         0.120675      0.552601     -1.781958
Ti       1.86244      9.41300     10.29833        -0.583125      0.131598     -0.291942
Ti      13.11875      9.38159     10.38646         0.761307      0.600690     -0.802404
Ti       5.56822      1.79939      2.13987        -0.100384      0.674472     -0.686076
Ti       5.56279      1.91764     14.36753        -0.481794     -0.827062      0.013204
Ti       5.61912     12.99108      2.18907        -0.893412      1.475973     -0.703580
Ti       5.63715     13.12043     14.50601        -0.953465      0.005144     -0.238119
Ti       5.61217      1.84250      6.17218        -0.111454      0.332139      0.690178
Ti       5.71356     13.14979      6.14770        -0.677832     -0.920056      1.012724
Ti       5.51750      1.84524     10.35724         1.248903     -0.043932     -0.301365
Ti       5.62179     13.14750     10.31085        -0.525340      0.547020     -0.368278
Ti       5.57311      5.58468      2.07247         0.993228      0.229223      0.027517
Ti       5.64548      5.66375     14.40897        -0.776038     -0.458654     -0.329926
Ti       5.68274      5.56425      6.30004        -1.355873      0.215560     -0.557813
Ti       5.49918      5.61776     10.38511         0.951893     -0.160647     -0.627604
Ti       5.60366      9.39452      2.11933        -0.265425     -0.282389      1.067453
Ti       5.61734      9.39689     14.38456         0.161026     -0.147874     -0.323430
Ti       5.63089      9.33787      6.28011         0.002730      0.386753     -1.930303
Ti       5.55754      9.42378     10.26918         0.470506     -1.096500      1.086010
Ti       9.30421      1.77232      2.03132        -0.137761      1.212626      0.991602
Ti       9.31126      1.85240     14.38305         0.321854      0.607373      0.881703
Ti       9.35547     13.08758      2.06454        -0.390453     -0.538934      0.752985
Ti       9.33514     13.13110     14.43069         0.089610     -0.811475      0.014848
Ti       9.45032      1.83268      6.17468        -1.486590      0.959398     -0.048119
Ti       9.51353     13.08112      6.23820        -0.967114      0.854326     -0.916806
Ti       9.38796      1.95006     10.40564        -1.488419     -0.863544     -0.972769
Ti       9.34789     13.12942     10.40306         0.232568      0.705456     -1.269123
Ti       9.32521      5.68554      2.06056        -0.393360     -2.218169      0.372166
Ti       9.37589      5.62143     14.29959        -0.330832     -0.076461      0.817758
Ti       9.36629      5.65702      6.29979        -1.108633      0.109835     -1.438970
Ti       9.33490      5.65478     10.33479        -1.423997     -0.573953     -0.407854
Ti       9.38695      9.36921      2.14111         0.491509      0.776616      0.176960
Ti       9.41653      9.37324     14.41343        -0.372957     -0.121736      1.330509
Ti       9.39818      9.38184      6.22945        -0.430533     -0.826278      1.355560
Ti       9.34482      9.38229     10.38075         0.031092     -0.359976     -1.257934
O       2.05443      1.84064      0.30854        -0.517014      0.304315      0.165874
O       1.93237      1.70747     12.67117        -0.717839      0.688265      0.120715
O       1.83344     13.14457      0.27009         0.228168     -0.048117      0.431955
O       1.89931     13.10401     12.61270        -0.478778     -0.015114      0.066993
O      12.88189      1.84010      0.28835         0.547610      0.072833      0.348826
O      13.16014      1.70752     12.76601        -0.491842      0.454430     -0.406569
O      13.28222     13.14777      0.31251        -1.131479      0.127634      1.348455
O      13.11295     13.00688     12.63054        -0.373172      0.406307     -0.373744
O       1.74462      1.86411      4.46832        -0.464694      0.287869      0.234402
O       1.80948     13.10496      4.44809        -0.195396     -0.146777      0.999460
O      13.18714      1.95408      4.29822        -0.429098     -0.276187      1.313194
O      13.25300     13.10211      4.39835        -0.638818     -0.272106     -0.303408
O       1.77363      1.99220      8.53198         0.110215     -0.934749      0.245303
O       1.81848     12.99688      8.54177         0.343796      0.709775     -0.251146
O      13.14462      1.76187      8.49002        -0.521146      0.038150     -0.110405
O      13.06610     13.17035      8.52942         0.343151      0.238233     -0.194668
O       1.66446      5.53547      0.33271         0.510431      0.381355     -0.717549
O       1.71391      5.64103     12.61766         0.699523      0.088044      0.656791
O      13.13671      5.59542      0.32081        -0.182622      0.407916     -0.549429
O      12.99278      5.61599     12.55058         0.443792      0.020256      0.917092
O       1.89078      5.70836      4.38528         0.178617     -0.562690      0.495134
O      13.05680      5.60481      4.50185        -0.096215      0.003115     -1.352140
O       1.75646      5.63007      8.53513        -0.067544     -0.020854      0.255144
O      13.16576      5.58477      8.53195        -0.383495      0.350841     -0.221287
O       1.91485      9.41531      0.29579         0.044694     -0.601420      0.598753
O       1.79562      9.37726     12.69638         0.184260     -0.006414     -1.860546
O      13.00833      9.35286      0.34091         0.321025     -0.622093     -0.448645
O      13.14579      9.41857     12.59030        -0.006214      0.032652     -0.271190
O       1.74902      9.30338      4.49516         0.538561     -0.076890     -1.223415
O      13.17408      9.26971      4.41543        -0.409147      0.590990      0.899089
O       1.84776      9.43698      8.49538        -0.091357     -0.416778     -0.039134
O      13.09841      9.43011      8.49140         0.176185     -0.514891      0.183758
O       5.42405      1.87913      0.31382         0.257515     -0.293625      0.261440
O       5.48074      1.81877     12.55558         0.376486      0.217633      1.082284
O       5.62021     13.07029      0.37277        -0.118499      0.156230     -0.161332
O       5.63482     13.08452     12.68944         0.209894     -0.102722     -0.356622
O       5.66247      1.85678      4.36202        -0.059740      0.278670      0.610590
O       5.64442     13.04750      4.39700         0.039282      0.424999     -0.049019
O       5.56060      1.88811      8.50493        -0.006038     -0.535561      0.294957
O       5.63853     13.14522      8.50626        -0.372322      0.122493     -0.323900
O       5.59920      5.58933      0.29155         0.103955      0.520560     -0.810410
O       5.55465      5.65806     12.60775        -0.149324     -0.193840     -0.022184
O       5.66467      5.54119      4.46415        -0.640170      0.179169     -0.672963
O       5.65292      5.54941      8.50558        -0.239192      0.202842      0.658048
O       5.57324      9.23992      0.33248        -0.149927      0.545826     -0.347466
O       5.54005      9.49600     12.56529         0.292962     -0.454617      0.455375
O       5.67121      9.41409      4.44853        -0.073542     -0.691157      0.502557
O       5.46788      9.40182      8.50582         0.511571     -0.238033     -0.977719
O       9.39955      1.80184      0.25093        -0.183756      0.389976     -0.473750
O       9.37326      1.90912     12.60280        -0.179569     -0.325840     -0.410473
O       9.30240     13.03908      0.28967        -0.105277      0.261337     -0.466730
O       9.21977     13.14201     12.58194         0.489456     -0.085262      0.750533
O       9.41411      1.81253      4.41789        -0.199896     -0.425947     -0.953905
O       9.40129     13.07144      4.40578         0.258093      0.566798      0.671271
O       9.35675      1.90893      8.52780         0.461118     -0.125504      0.506299
O       9.50847     13.05975      8.54598        -0.601745      0.338841      0.227179
O       9.26047      5.57519      0.28793         0.621649      0.036892     -0.247839
O       9.28879      5.63497     12.50467         0.248277      0.067260      0.285852
O       9.44319      5.74046      4.47248        -0.445927     -0.078534      0.202845
O       9.21067      5.59080      8.45832         0.185391     -0.107308      1.039742
O       9.45084      9.43467      0.33163        -0.010656     -0.491140     -0.026109
O       9.30926      9.30321     12.68754         0.032760      0.120555     -1.925995
O       9.38384      9.39024      4.49150        -0.270227     -0.501095     -1.368786
O       9.46874      9.45030      8.52475        -0.363296     -0.153275      1.192037
O       3.70073      1.92512      2.67631         0.225008      0.318511     -0.805209
O       3.69087      1.84457     14.66550         0.762706      0.421994      0.258778
O       3.71811     13.05111      2.57704         0.249028      0.630563     -0.307782
O       3.67990     13.01225     14.71482         0.645794      0.013671     -0.023804
O      14.91720      1.92491      2.26646         1.005698     -0.062382      0.024497
O      15.00313      1.70344     14.84604        -0.644546      0.382600     -0.117023
O       0.03702     13.08279      2.33877        -0.963087      0.295409      0.445647
O      14.94868     13.22247     14.73459        -0.175873      0.108860     -0.490218
O       3.61562      1.80587      6.41606         2.638049     -0.437695      0.236947
O       3.75422     13.27544      6.36206         0.694998     -0.149970      0.737697
O      14.91401      1.99176      6.65748         0.454641      0.164954     -0.571153
O       0.01391     12.96893      6.55189        -0.263058     -0.291728      0.183180
O       3.66506      1.69137     10.53226        -0.026215      0.122078      0.222162
O       3.71506     13.24703     10.66255         0.098056     -0.466997     -0.339592
O      14.88973      1.95680     10.80411         0.688260     -0.530790     -0.653032
O      14.97017     12.99448     10.66560        -0.885689      0.383212     -0.080868
O       3.69662      5.59684      2.31326         0.234404     -0.030057      0.470811
O       3.77300      5.54115     14.80880        -1.418303      0.088281     -0.152936
O      14.99657      5.74272      2.55178        -1.666172     -0.979702     -0.367998
O       0.01248      5.76571     14.67063        -1.412882     -0.141569      0.050687
O       3.69459      5.66230      6.56756         0.370513     -0.017234     -0.442859
O      14.97568      5.39043      6.47779        -0.659187     -0.028502     -0.024967
O       3.61258      5.60460     10.64921         1.216684      0.575395      0.108675
O      14.90221      5.54088     10.65822         0.222388     -0.193689      0.089011
O       3.70053      9.34053      2.56219         0.766317     -0.098281     -0.328432
O       3.75743      9.46687     14.60937        -0.156043      0.282271      0.378705
O      14.95870      9.25891      2.48414         1.071278      0.428877     -0.582576
O      15.00493      9.33453     14.77568        -0.557442     -0.342818      0.004184
O       3.74811      9.13512      6.46237        -0.390548      0.244669     -0.097119
O       0.00432      9.60847      6.38585        -1.040326      0.132343      1.081547
O       3.69611      9.23476     10.60374         0.108516      0.517155      0.108372
O       0.01261      9.51397     10.62383        -0.821157     -0.265851     -0.080720
O       7.43232      1.84458      2.29572        -0.102831     -0.118289      0.363015
O       7.46105      1.72974     14.74597        -0.788442      0.115416     -0.333047
O       7.41064     13.03440      2.53254         1.718507      0.078323     -0.347059
O       7.48991     13.21477     14.82516        -0.022837     -0.118439     -0.417939
O       7.54245      1.93397      6.52872        -0.926000      0.061372     -0.303678
O       7.55006     12.93574      6.48130         0.206681      0.473325     -0.110382
O       7.43551      1.97256     10.58125         0.667881      0.188424      0.137450
O       7.46929     13.12655     10.52518         0.474354     -0.263610      0.497393
O       7.48577      5.58717      2.30090        -0.056035      0.238425      0.848782
O       7.46545      5.71085     14.68920         0.159060     -0.014661     -0.074950
O       7.44063      5.35631      6.39282         1.815459      0.491215      0.468052
O       7.36995      5.49123     10.72179         0.790998     -0.095910     -0.538418
O       7.50094      9.53966      2.48369         0.065079     -0.725471     -0.558287
O       7.50072      9.38796     14.78241        -0.724359     -0.773254     -0.293527
O       7.46201      9.52582      6.59261         1.011894     -0.158160      0.016899
O       7.42015      9.48585     10.65276         0.555238     -0.617900     -0.416105
O      11.14542      1.74679      2.32824         0.849928      0.036782      0.587832
O      11.19554      1.94574     14.64894        -0.653181      0.182347     -0.081200
O      11.17581     13.18651      2.29269         1.558863      0.569579      0.450453
O      11.16832     12.88864     14.76500         0.191914      0.764010     -0.445352
O      11.26645      1.69137      6.47059         1.000751      0.084969      0.202398
O      11.29525     13.29596      6.53058         0.644473      0.078992     -0.275902
O      11.26017      1.82116     10.66844        -0.491525     -0.293558      0.192578
O      11.22814     13.06951     10.65010        -0.829120      0.499044      0.473881
O      11.19452      5.66656      2.41857         0.249301     -0.496620     -0.054333
O      11.20812      5.51110     14.56705         0.631068      0.127305      0.564828
O      11.16035      5.82907      6.60572         1.972857     -0.202467     -0.131202
O      11.12816      5.84695     10.49898         1.323410     -0.198699      0.078333
O      11.23379      9.29108      2.55837         0.002340      0.113393     -0.393625
O      11.30110      9.50443     14.62739        -0.706730     -0.355283      0.291931
O      11.28798      9.07398      6.40920        -0.748821      0.243872      0.314069
O      11.23876      9.24006     10.65860        -0.635349      0.226411      0.045313
O       1.77002      3.73315      2.39047         0.147671      0.033040      0.312782
O       1.67056      3.76482     14.69083         0.583446     -0.874047     -0.168364
O       1.82189      0.02250      2.45933         0.372418     -0.068152     -0.252990
O       1.85707     14.94658     14.80943         0.404366      0.599618     -0.213919
O      13.03536      3.76855      2.35252        -0.031283     -0.275073      0.332230
O      13.14521      3.71445     14.69615         0.436457      0.392836      0.111767
O      13.13586      0.00394      2.39904        -0.158905     -0.203570      0.382965
O      12.94801     14.96717     14.77091        -0.295167     -1.014442      0.100598
O       1.93449      3.76027      6.60561        -0.232215     -0.140893     -0.510094
O       1.75423     14.95802      6.51935        -0.516030      0.462026      0.552155
O      12.89006      3.77224      6.52303         0.100750     -0.707642     -0.085798
O      13.33694     14.98185      6.27750        -0.227474      0.556712      0.669962
O       1.85186      3.74625     10.62583        -0.093214     -0.509020      0.469805
O       1.68550     15.00726     10.68189        -0.044929     -0.199719     -0.540717
O      12.96514      3.70807     10.65265        -0.199310      0.386450     -0.196644
O      13.04490     14.96556     10.71420         0.446131      0.811151     -0.052412
O       1.86052      7.47701      2.30137         0.202883      0.340133      0.194715
O       1.94148      7.53543     14.70206         0.083532     -1.069556      0.496249
O      13.03688      7.46155      2.41871         0.213531      0.302704     -0.126186
O      13.06986      7.51094     14.53874        -0.388901     -0.518564      0.781701
O       1.65215      7.42887      6.54612        -0.017458      0.607675      0.389332
O      13.44704      7.51671      6.51410        -0.653589     -1.123636      0.177487
O       1.68658      7.48645     10.56954         0.085636      1.983771      0.497130
O      13.22083      7.51773     10.55060        -0.156144     -0.350998      0.376458
O       1.80418     11.25425      2.38832         0.134355     -0.681043      0.212985
O       1.70255     11.24602     14.83426         0.470294      0.309694     -0.715221
O      13.00352     11.23855      2.32614         0.314455      0.011789      0.421177
O      13.23817     11.30110     14.81609        -0.258767     -1.237573     -0.485049
O       2.06419     11.15276      6.49778         0.071247      1.237750      0.073300
O      12.93002     11.22273      6.52516         0.120743      0.589838     -0.277527
O       1.86681     11.26948     10.61645         0.689752     -0.556676      0.376649
O      12.97331     11.24748     10.56330         0.170693     -0.142481      0.233176
O       5.68757      3.76318      2.26970        -0.725568     -0.966301      0.924768
O       5.58766      3.74502     14.69684         0.438920     -0.507148     -0.173224
O       5.56700     14.98758      2.42965        -0.127292     -0.598551      0.110010
O       5.45814     14.94680     14.77167         0.421520      1.182101     -0.130209
O       5.57963      3.67480      6.58464        -0.948917     -0.282390     -0.506282
O       5.80903     15.00098      6.44961        -0.412216      0.082995      0.071900
O       5.37285      3.72466     10.76519         0.300797     -0.233785     -0.541179
O       5.63386     14.98260     10.74607         0.291108      0.167871     -0.398985
O       5.66822      7.49549      2.35952        -0.095334      0.250322      0.602217
O       5.45843      7.52505     14.57282         0.362862      0.186581      0.504224
O       5.75216      7.44234      6.48941         0.171107     -0.010529      0.356417
O       5.61640      7.46771     10.60589        -0.005542      0.734772      0.052851
O       5.49497     11.23496      2.52913         0.120236     -1.299927     -0.440375
O       5.62416     11.27326     14.81764         0.497870     -0.866934     -0.268076
O       5.47990     11.22421      6.47464        -0.120578      0.960319      0.189073
O       5.55861     11.24186     10.58291        -0.524990      0.855757     -0.018015
O       9.29829      3.62945      2.59900         0.519830      1.085210     -1.097091
O       9.18087      3.77010     14.72469         0.476908     -0.841868     -0.561940
O       9.19412     14.94853      2.33713         0.177652     -0.104103      0.368188
O       9.42318     14.99789     14.74694         0.108938     -0.499296     -0.490395
O       9.49876      3.73259      6.38491         0.410914      0.403865      0.389572
O       9.27839      0.00684      6.41293        -0.117814     -1.384604      0.706388
O       9.54084      3.76223     10.74686        -0.592471      0.564327     -0.656327
O       9.34085      0.04063     10.68753        -0.009453     -0.625198     -0.169379
O       9.33481      7.48303      2.26430        -0.344076      1.265516      0.418097
O       9.38544      7.44101     14.70426         0.266315      1.110294      0.262712
O       9.12940      7.55112      6.72968         0.208874     -0.684473     -0.836601
O       9.14142      7.49061     10.63807        -0.022193      0.557034     -0.373544
O       9.51082     11.26050      2.47358        -0.523292     -0.610090     -0.055093
O       9.20681     11.19053     14.70958         0.233285      1.379865     -0.348677
O       9.57598     11.22775      6.47934        -0.024257      0.072169      0.240779
O       9.35542     11.23034     10.70331         0.205370      0.174012     -0.010142
