  # total energy = -7879.69100426 
CRSYTAL
PRIMVEC
    15.3600000000000000    0.0000000000000000    0.0000000000000000
     0.0000000000000000   15.3600000000000000    0.0000000000000000
     0.0000000000000000    0.0000000000000000    17.440000000000000
PRESSURE
3.19812 2.94453 2.64933 0.142109 0.110413 -0.015546
PRIMCOORD
320 1
Pb       3.80928      3.86753      4.21962        -0.256674      0.079788      0.431801
Pb       3.76901      3.90521     17.33197        -0.072126     -0.962782      0.743755
Pb       3.86064      0.00938      4.21558         0.124468     -0.224337      0.699553
Pb       3.97490      0.06028      0.02065        -0.902256     -0.099576     -0.142396
Pb      15.21857      3.92280      4.27965         1.109821     -0.586897      0.531375
Pb      15.20451      3.75369     17.38315         0.552399      0.050985     -0.108203
Pb      15.23442     15.31191      4.31882         0.124087     -0.367256      0.390214
Pb       0.08578     15.35498     17.43178        -0.077579      0.175470     -0.244788
Pb       3.94010      3.88557      8.57415        -0.235047     -0.674230      1.202407
Pb       3.77127     15.25713      8.77353         0.609696      0.420605     -0.796454
Pb       0.14721      3.67639      8.65268        -0.043660      0.384448      0.535553
Pb       0.17367     15.31081      8.57868        -0.672729     -0.082661      0.153193
Pb       3.85199      3.94615     13.07795        -0.649074     -0.395481      0.116774
Pb       3.99558     15.30563     13.24284        -0.695469      0.281082      0.027965
Pb      15.23015      3.86451     12.96211         0.828849      0.173060      0.105808
Pb      15.33450      0.04706     12.99052        -0.003272     -0.463179      0.395613
Pb       3.80032      7.64705      4.29466        -0.330871      0.144903     -0.244745
Pb       3.83928      7.78265      0.00685        -0.024678     -0.393208     -0.115878
Pb      15.19838      7.44434      4.29720         0.886468      1.132730      0.873293
Pb       0.17106      7.68039     17.40599        -0.619811     -0.320193     -0.194540
Pb       3.82846      7.54268      8.67173        -0.238002      1.001155      0.663476
Pb      15.31201      7.68881      8.66467         0.492327     -0.209549      0.363491
Pb       3.80354      7.82480     13.08576         0.237799     -0.582507     -0.011266
Pb      15.34882      7.73815     12.90624         0.039020     -0.187862      0.087641
Pb       3.83659     11.41439      4.33511        -0.361927      0.061119      0.069217
Pb       3.73107     11.41637     17.42536         0.635997      0.401928      0.628426
Pb      15.35725     11.42255      4.26668        -0.204052      0.359973      0.811283
Pb       0.08547     11.38750      0.06413        -0.494778      0.434599      0.255460
Pb       3.70950     11.50508      8.67897         0.559413     -0.501381     -0.114996
Pb       0.09964     11.58197      8.59414        -0.754378     -0.260590      0.442330
Pb       3.73830     11.58236     13.00000         0.464401     -0.070841      0.769238
Pb      15.13887     11.42162     13.03440         0.242692      0.469897     -0.188825
Pb       7.58801      3.94479      4.28410        -0.046091     -0.552328      0.508142
Pb       7.71487      3.84390     17.29616        -1.001075     -0.018322      1.241871
Pb       7.58293      0.00719      4.18093        -0.259042     -0.037237      0.672096
Pb       7.80410     15.27451     17.43592        -0.012909     -0.007237      0.187023
Pb       7.70973      3.74190      8.69923        -0.400804     -0.198488      0.065090
Pb       7.68460      0.01857      8.66326        -0.458096     -0.085258      0.115066
Pb       7.48551      3.67499     13.03881         1.081444     -0.067017      0.791338
Pb       7.70620     15.05781     13.13826        -0.584448      1.712091      0.703805
Pb       7.57815      7.76774      4.34161         0.780279     -0.307041      0.274258
Pb       7.79412      7.49951     17.37488        -0.606153      0.913073      0.109235
Pb       7.60421      7.63649      8.68820        -0.104175     -0.192611      0.286467
Pb       7.70242      7.61398     13.02518        -0.230356      0.284171      0.189278
Pb       7.66748     11.51990      4.24921        -0.178805     -0.239411      0.933185
Pb       7.70454     11.45484     17.35675        -0.015107      0.235172      0.721754
Pb       7.75275     11.40538      8.78048        -0.600768      0.474554     -0.460542
Pb       7.58016     11.50907     13.08900         0.037176     -0.769705     -0.011800
Pb      11.56024      3.89976      4.38114        -0.338066      0.084034     -0.056556
Pb      11.26694      3.78688     17.28375         1.868032      0.300527      1.350237
Pb      11.45206      0.14971      4.27934         0.602975     -0.708629      0.048938
Pb      11.71059      0.03629     17.29866        -0.696440     -0.075995      1.291382
Pb      11.67056      3.72055      8.70074        -0.692521      0.317969      0.412176
Pb      11.50125     15.28168      8.61787        -0.124572     -0.070881      0.933076
Pb      11.40987      3.91112     12.91390         0.472476     -0.249990      0.047605
Pb      11.42326     15.29285     13.07076         0.926776      0.053552     -0.177116
Pb      11.52990      7.70059      4.35773        -1.139224     -0.314147      0.418020
Pb      11.44860      7.64171     17.33683         0.358979      0.045811      0.392976
Pb      11.43893      7.58939      8.66292         0.473519     -0.258174      0.687608
Pb      11.62462      7.72794     12.91505        -0.332827     -0.207574      0.465372
Pb      11.39780     11.55827      4.38581         0.126163      0.199277      0.159963
Pb      11.65415     11.57311     17.41328        -0.386814     -0.123769      0.216875
Pb      11.34959     11.51835      8.75237         0.651918      0.460783      0.363213
Pb      11.37750     11.54402     13.01858         0.862768     -0.029817      0.251362
Ti       1.92410      1.83449      2.34162        -0.964987      0.728203     -0.383698
Ti       1.92996      1.92447     15.42036         0.265042     -0.472147      0.454555
Ti       1.88530     13.40918      2.36616        -0.794568     -0.129175     -0.419319
Ti       1.88650     13.38038     15.56206         0.160597      2.380080     -1.058589
Ti      13.47779      1.98374      2.29322        -0.975584     -1.513119      1.049134
Ti      13.39142      1.94850     15.26082         1.332551      0.423581      0.457796
Ti      13.37660     13.42322      2.45923        -0.279413      1.221482     -1.049011
Ti      13.45994     13.41266     15.45278         0.035871      0.030189     -1.084980
Ti       2.01344      1.96070      6.69840         0.111179     -0.931529     -0.239579
Ti       1.91766     13.39988      6.60425        -0.375752      0.318307     -0.581760
Ti      13.42425      1.82127      6.73611         0.858953     -0.430093      0.064089
Ti      13.34333     13.34381      6.75780         1.006716     -0.141850     -1.437388
Ti       1.91704      1.84911     11.16358         0.549491      1.165353     -0.405298
Ti       1.90897     13.42512     11.07464        -0.961575      0.063664      0.580644
Ti      13.46079      1.87837     11.05550        -0.879043     -0.351352      1.397961
Ti      13.42331     13.37693     11.02619        -0.470844      0.742260      1.034155
Ti       1.83266      5.70131      2.21628         1.905538      0.827038      0.485152
Ti       1.95373      5.77040     15.38267        -0.944394     -0.426601     -0.822117
Ti      13.30929      5.85194      2.35122         0.256624     -1.544896     -2.476802
Ti      13.44624      5.78115     15.42227         0.318091     -0.279326      0.176011
Ti       1.97052      5.79710      6.77213        -1.597590     -0.225245     -0.959065
Ti      13.45022      5.67831      6.85479        -0.054793      1.193084     -0.243751
Ti       1.97988      5.76272     11.07095        -0.607317     -0.330338      0.615276
Ti      13.44265      5.70693     10.99852         0.284037     -0.032016      0.809365
Ti       1.80795      9.49831      2.42628         1.066930      0.526651      0.393184
Ti       1.84035      9.63246     15.33714         0.630472     -0.604207     -0.367661
Ti      13.30116      9.63994      2.38991         0.547175      0.628604     -1.941931
Ti      13.38577      9.59813     15.49236        -0.308696     -0.458190      0.185012
Ti       1.84921      9.56865      6.66966         1.212404     -0.583766     -0.733947
Ti      13.40652      9.55751      6.81574         0.274083      0.484108     -0.167455
Ti       1.91308      9.59770     10.97878        -0.292966      0.111835     -0.567010
Ti      13.38040      9.59805     10.86730         0.306491      1.156770      1.620211
Ti       5.72529      1.94348      2.20308         0.427096     -0.335987      1.421340
Ti       5.85756      1.83524     15.53091        -2.107324      0.518876      0.004815
Ti       5.71711     13.31958      2.38318        -0.106341      0.369176      0.215598
Ti       5.74267     13.39339     15.55691         0.129301      0.613428     -1.821932
Ti       5.74681      1.85188      6.66992        -0.289133     -0.441184      0.714868
Ti       5.71770     13.30991      6.73274         0.306190      1.197858     -1.176210
Ti       5.65231      1.87135     11.07959         1.349578      0.168657     -0.275591
Ti       5.68866     13.49148     11.10483        -0.683475     -0.286998     -0.668337
Ti       5.72249      5.74479      2.24948        -0.916216     -0.002171      0.140354
Ti       5.69036      5.71954     15.46263         0.178808      0.525908     -0.260135
Ti       5.73847      5.78838      6.67274         0.297323     -0.852161      0.095111
Ti       5.76852      5.78965     11.09404        -0.766234     -0.630334     -0.867318
Ti       5.72661      9.55176      2.30052        -0.580976      0.392526     -0.110223
Ti       5.71516      9.61054     15.52003         0.291749     -0.663747     -1.038714
Ti       5.73325      9.55175      6.72639        -0.643083      0.681520     -0.630688
Ti       5.78201      9.60698     11.08086        -0.727673     -0.514431     -0.126584
Ti       9.59096      1.91940      2.33966         0.399716      0.027300     -0.514930
Ti       9.56215      1.95317     15.35937         0.035023     -1.160460      1.219756
Ti       9.56068     13.39158      2.37215         0.866733      0.376242     -0.090071
Ti       9.64644     13.44516     15.49942        -0.196220     -0.321213      0.630529
Ti       9.59950      1.96206      6.61206        -0.688933     -0.634005      2.071281
Ti       9.51902     13.49652      6.70604        -0.419418     -0.772050      0.639743
Ti       9.54696      1.89487     11.12283        -0.336231     -0.313628     -0.375764
Ti       9.46115     13.48456     11.12278         2.382256     -0.596740     -1.805635
Ti       9.50877      5.68724      2.40202         0.436549      2.300872      0.856584
Ti       9.60472      5.77670     15.31587         0.316785      0.104101     -0.170585
Ti       9.53047      5.68838      6.79431         1.025598      0.304830     -2.211920
Ti       9.51134      5.68538     11.03627         0.614603      0.628798     -0.699299
Ti       9.53411      9.55725      2.33295         0.242437     -0.648230      1.086102
Ti       9.58185      9.60550     15.35853         0.043125      0.509695      0.636664
Ti       9.61797      9.49565      6.85373        -0.552720      0.917963     -0.324258
Ti       9.59362      9.54481     11.08308        -0.180877      0.274453      1.544817
O       1.64959      1.99315      0.61017         0.598187     -0.386250      0.375496
O       2.09294      2.00162     13.70848        -0.587263     -0.429084     -1.751071
O       1.75727     13.43168      0.59313         0.446367     -0.320471     -0.651119
O       1.98217     13.42301     13.79633         0.136589     -0.251711      0.156297
O      13.40526      1.99958      0.58413         0.386927      0.096752     -1.125151
O      13.60034      1.97627     13.51244        -0.472666      0.079397      0.350688
O      13.23911     13.44738      0.68155         0.138478     -0.285884     -0.823643
O      13.32257     13.27629     13.70755         0.498279      0.638455     -0.461856
O       2.14774      1.98955      4.99578        -0.351129     -0.196975     -1.941172
O       1.84736     13.43439      4.87910         0.025790      0.018444     -0.684342
O      13.43094      1.79954      4.98916        -0.221456      0.465399      0.098521
O      13.52271     13.43205      4.95897        -0.824017     -0.193114     -0.035387
O       1.90264      1.86705      9.39784        -0.004642     -0.153001     -0.670386
O       1.75686     13.39154      9.32897         0.859168      0.161264     -1.278724
O      13.50292      1.87773      9.35402        -0.033903     -0.103128     -2.652134
O      13.42115     13.51516      9.33492         0.063512     -0.117421     -1.712597
O       1.89446      5.72989      0.47770        -0.290488      0.208903     -0.858558
O       1.91641      5.81971     13.57160         0.256695      0.033239      0.842201
O      13.32122      5.67312      0.58000         0.078127      0.508103      1.243538
O      13.41169      5.75914     13.67094         0.008213     -0.090745     -1.198155
O       1.90710      5.80932      5.00822         0.086339      0.068938      0.000647
O      13.40891      5.82137      5.08665         0.489032     -0.371943     -1.604622
O       1.99578      5.81369      9.36203         0.170716     -0.104813     -2.234082
O      13.33922      5.68265      9.31383         0.017105      0.260774     -1.995331
O       1.93756      9.60862      0.66670        -0.435663      0.162371     -1.420229
O       1.85664      9.54652     13.55755        -0.102398      0.307952      0.732431
O      13.36704      9.73161      0.55567        -0.236725     -0.216545      1.177067
O      13.44235      9.59805     13.77650         0.159843     -0.106498     -1.360206
O       1.94688      9.58118      4.85399        -0.360662     -0.368192      0.421637
O      13.47169      9.67224      5.05994        -0.407019     -0.425883     -0.865771
O       1.96221      9.60656      9.19207        -0.206922      0.254262      0.446383
O      13.41086      9.58846      9.18046         0.060917     -0.160184     -1.544562
O       5.74659      2.00247      0.50731         0.279543     -0.271192     -1.364473
O       5.83643      1.77417     13.78577         0.081266     -0.020755     -0.845222
O       5.96163     13.21328      0.68265        -0.677100      0.429060     -0.618396
O       5.67042     13.57775     13.67543         0.329882     -0.535416      0.683368
O       5.78705      1.76272      4.93919        -0.164778      0.403104     -0.969551
O       5.80648     13.41085      4.93299        -0.231495     -0.191951      0.011226
O       5.67434      1.97385      9.32572         0.046850     -0.110554     -0.177887
O       5.56327     13.47560      9.35557         0.251134     -0.199485      0.032230
O       5.59089      5.71864      0.50231         0.924334      0.214269     -0.012533
O       5.60492      5.85505     13.71977         0.245158     -0.437012     -0.459016
O       5.67568      5.68076      4.93605         0.032806      0.237612     -0.664373
O       5.68768      5.82075      9.30032         0.440261     -0.223855      0.100911
O       5.62876      9.72751      0.54080         0.196572     -0.584148     -0.247847
O       5.65195      9.56841     13.74289         0.479030      0.161563     -0.110834
O       5.83208      9.50528      4.93481        -0.334719      0.369880      0.255914
O       5.74919      9.62162      9.34177         0.197097     -0.350674     -0.262958
O       9.53360      1.96110      0.57528         0.107130     -0.071408     -0.096644
O       9.47914      1.93149     13.67735        -0.033723      0.233084     -1.595659
O       9.61434     13.47886      0.61952        -0.191919     -0.248553     -0.777196
O       9.70700     13.57782     13.77683        -0.403355     -0.862340     -1.811935
O       9.71519      2.16356      4.93541        -0.104463     -0.616086     -1.962840
O       9.66377     13.37702      4.99222        -0.481907     -0.013453     -0.954465
O       9.38047      1.78133      9.38282         0.595579      0.234606     -0.471918
O       9.50534     13.58106      9.32827        -0.225703     -0.371741      1.157677
O       9.64437      5.75078      0.66885        -0.372366      0.230090     -1.417585
O       9.76436      5.72231     13.57811        -0.669914      0.058156      0.204760
O       9.62210      5.87783      4.97242        -0.144130     -0.875410      1.034607
O       9.55348      5.69317      9.25762        -0.391057      0.125656     -0.390066
O       9.68599      9.42290      0.65862        -0.182049      0.235974     -2.217816
O       9.57332      9.66143     13.62572        -0.213787     -0.313525     -0.004631
O       9.45649      9.49046      5.12615         0.624038      0.297466     -0.208330
O       9.61754      9.51977      9.35655        -0.339497      0.233604     -1.867644
O       3.82605      1.85941      2.53663         0.059673      0.639199      0.462915
O       3.83596      1.82412     15.86982         0.493900     -0.184027      0.450648
O       3.71170     13.37254      2.79150         2.315277     -0.187150     -0.220957
O       3.95055     13.44515     16.00377        -1.913548      0.224587      0.105666
O      15.33324      1.80566      2.84742         0.318374      0.562925     -0.203818
O       0.02726      1.86163     15.79047        -1.078200      0.576951     -0.044556
O      15.31537     13.57165      2.64416        -0.392311     -0.262958      0.682146
O      15.30749     13.41473     15.81362         0.605969      0.111564      0.390806
O       3.85912      1.96380      7.07860         0.337932     -0.273456      0.621315
O       3.82637     13.38976      6.96295        -0.799748     -0.266266      0.798494
O       0.09761      1.86844      7.01725        -1.376701     -0.098399      0.429028
O      15.29546     13.34060      6.96968         1.140981      0.323261      0.862080
O       3.87140      1.78246     11.55257        -0.479384      0.492593     -0.002199
O       3.80003     13.50999     11.48824         0.601350      0.037684      0.206920
O      15.34955      1.92486     11.51574         0.742385      0.160163      0.036434
O      15.35421     13.29059     11.39505        -0.231412      0.466530      0.682669
O       3.81787      5.73557      2.57746         0.713716      0.181344      0.682889
O       3.80952      5.67169     15.90812        -0.241835      1.057876     -0.559874
O       0.04340      5.80683      2.67271        -2.260825     -0.098701      0.331848
O       0.04512      5.91671     15.73001        -0.074341     -0.569230      0.330104
O       3.82833      5.72993      7.09137         0.237290      0.601179      0.018936
O       0.00372      5.81555      7.15481         0.109907     -0.486459      0.241060
O       3.84172      5.87986     11.40273         0.718911     -0.247597      0.618519
O       0.03720      5.64610     11.19909        -1.642204      0.478484      1.069598
O       3.75105      9.47313      2.66873         1.563205      0.792033      0.624263
O       3.79021      9.63473     15.77184        -0.343881      0.176797      0.367527
O      15.31538      9.48986      2.64707        -1.066372      0.536629      0.493466
O      15.31807      9.65332     15.82426         1.122346     -0.385578      0.186675
O       3.83094      9.46439      7.03703        -0.204008      0.380644      0.091758
O      15.35921      9.55291      7.09230        -0.349076      0.015501      0.141387
O       3.77753      9.41150     11.35934         0.971105      0.494123      0.333473
O      15.32978      9.75770     11.37344        -0.187535     -0.273480      0.024014
O       7.70908      1.94275      2.72493        -0.177025     -0.203928      0.004360
O       7.67516      1.94512     15.91856         0.765688      0.004561     -0.081627
O       7.63414     13.42107      2.81081         0.228663     -0.021074     -0.132877
O       7.64859     13.38560     15.79824         0.954061      0.155634      0.319438
O       7.63206      1.88752      7.08501         0.852523      0.374161     -0.028994
O       7.57372     13.37528      7.12756         0.937027      0.017839      0.250303
O       7.65397      1.89771     11.45687        -0.188164      0.116283      0.583691
O       7.60955     13.41679     11.50576         0.295538     -0.572429      0.099431
O       7.60137      5.78518      2.87886        -0.001470     -0.340679     -0.945355
O       7.61632      5.79693     15.77630         1.097149     -0.515183     -0.070085
O       7.63854      5.72422      7.00851         0.294420      0.215515      0.521005
O       7.66679      5.75602     11.45210         0.100676     -0.113710      0.401124
O       7.69196      9.64846      2.64020        -1.405776     -0.150292      0.329602
O       7.66174      9.63284     15.92173        -0.026131     -0.513343     -0.501223
O       7.64747      9.52923      7.22297         0.650411      0.227293      0.213638
O       7.67195      9.62761     11.54208        -0.565736     -0.145767     -0.019260
O      11.51802      1.99624      2.68842        -0.206355      0.361638      0.532441
O      11.47681      1.99715     15.51646        -0.139939      0.151410      0.637538
O      11.41668     13.36034      2.83309         0.837875     -0.302514      0.389019
O      11.56567     13.60591     15.79737        -0.733107     -0.885384      0.522442
O      11.48267      1.82509      7.20653         0.648345      0.523725     -0.647332
O      11.43469     13.41362      7.11573         0.323182     -0.125078      0.207295
O      11.48200      1.96701     11.46413        -0.011202     -0.305057      0.036123
O      11.45666     13.46231     11.41483        -0.132871     -0.115257      0.465409
O      11.48217      5.78148      2.84865         0.660337      0.040922     -0.083099
O      11.51470      5.68280     15.81888        -1.168662      0.184090     -0.213314
O      11.53411      5.64394      7.02252        -0.415035     -0.154135      0.988295
O      11.37651      5.83006     11.27610         2.034848     -0.330317      0.899253
O      11.40972      9.62186      2.77602         1.756492     -0.060962      0.439640
O      11.47677      9.62922     15.77162        -0.224417     -0.368781      0.295080
O      11.54168      9.71677      7.31184        -1.346570     -0.894861     -0.859341
O      11.45994      9.58967     11.51419         1.190104      0.165425     -0.480855
O       1.89706      3.93711      2.79769        -0.210611     -1.815192     -0.034298
O       1.97962      3.80396     15.72325        -0.466367      1.445789      0.302699
O       2.05660     15.33014      2.65343        -0.876040      0.727070      0.245095
O       1.88614      0.00302     15.83041         0.174113     -0.965262      0.618833
O      13.47569      3.82911      2.77825        -0.054499      1.155103      0.128916
O      13.48553      3.85112     15.87003        -0.250487     -0.419954     -0.799325
O      13.23718     15.35882      2.57733         0.424500      0.554996      1.096964
O      13.40050      0.11520     15.81329         0.509162     -0.535334     -0.507424
O       1.95301      3.81174      7.09466        -0.235576      1.034582      0.346652
O       1.99398     15.27134      7.00969        -0.277917      0.523000      0.617258
O      13.51395      3.82073      7.17318        -0.235625     -1.614663     -0.123515
O      13.43170     15.24854      7.06858        -0.038918      1.438706      0.388376
O       2.00240      3.84195     11.43145         0.065486     -0.390068      0.411802
O       1.88965     15.34613     11.42569        -0.359175     -0.555203      0.430995
O      13.42616      3.80359     11.25330        -0.320618      1.176193      1.031629
O      13.42900      0.04754     11.48784         0.170363     -1.469287      0.289874
O       2.01080      7.65233      2.62814        -0.790078     -0.914574      0.412093
O       2.00094      7.73627     15.80904        -0.294381      0.276353      0.032436
O      13.44750      7.71867      2.66289        -0.611266     -0.341080      0.387124
O      13.36305      7.61509     15.84982         0.138205      1.074612      0.208170
O       1.83528      7.68375      7.17939         0.568125     -0.456756     -0.154239
O      13.32855      7.63314      7.11994         0.199382      0.440674      0.411111
O       1.72870      7.73638     11.33936         0.268693     -0.170816      0.374919
O      13.45971      7.79444     11.33033         0.050075     -1.907501      0.375114
O       1.83578     11.54525      2.82484         0.083186     -0.916975     -0.438263
O       1.93599     11.54602     15.91000        -0.341532     -1.528784     -0.221196
O      13.40529     11.55721      2.75257         0.127776     -1.517014      0.281159
O      13.42706     11.52653     15.73765        -0.345218     -0.012891      1.007655
O       1.92001     11.43583      6.97019         0.083613      0.775476      0.507525
O      13.45214     11.48352      7.23130        -0.401606      0.344237     -0.105206
O       2.09040     11.56546     11.47572        -0.660940     -0.900006     -0.481644
O      13.34155     11.49497     11.32576        -0.070090     -0.047337      0.566893
O       5.73179      3.78610      2.68622         0.268228      0.891463      0.141587
O       5.63834      3.77592     15.77024         0.777115      0.445986      0.056926
O       5.75443     15.35242      2.58253        -0.001903     -0.415563      0.329725
O       5.80124     15.30792     16.01001         0.322258      0.322503      0.038980
O       5.72113      3.88520      7.13448         0.501222     -0.362835     -0.376713
O       5.70479     15.32510      7.09793        -0.195335      0.081958      0.349099
O       5.83743      3.82423     11.64323        -1.543775      0.109934     -1.182944
O       5.81958     15.35463     11.43140        -0.128285     -0.406936      0.303607
O       5.83648      7.71203      2.70936        -0.568095     -0.994787     -0.332787
O       5.74620      7.65163     15.78000        -0.375280      0.743247      0.819320
O       5.75828      7.68496      7.07132         0.157979     -0.860504      0.351815
O       5.86495      7.56879     11.50981        -0.148584      2.068220      0.155636
O       5.69009     11.41458      2.80548         0.108790      0.641695      0.108610
O       5.70707     11.58824     15.85390         0.352146     -1.955866      0.060412
O       5.63444     11.45713      7.20782         0.535151     -0.336921     -0.167876
O       5.69044     11.45829     11.48076         0.033386      0.702500      0.223994
O       9.59205      3.91890      2.65601        -0.061320     -1.974795      0.781826
O       9.49161      3.89698     15.92817         0.094387     -0.234501     -1.608960
O       9.77766     15.30911      2.71215        -1.485206      1.190891      0.049760
O       9.49341     15.33270     15.71617         0.109153      1.218243      0.688375
O       9.60305      3.78446      7.06833        -0.216236      0.097132      0.579305
O       9.53883     15.35226      7.08412        -0.033275      0.546023     -0.260414
O       9.57227      3.81793     11.37074        -0.179640      0.108337      0.485215
O       9.62723     15.31991     11.61577        -0.766217     -0.041550     -0.285897
O       9.54975      7.65134      2.82247         0.084397      0.410359      0.069683
O       9.55294      7.66526     15.79283         0.173141     -0.412581     -0.146787
O       9.68432      7.58070      7.15198        -0.415912      0.992854      0.291118
O       9.62835      7.73755     11.50838        -0.806990     -1.390867      0.068174
O       9.56335     11.50325      2.81510        -0.041759     -0.129430     -0.158776
O       9.56172     11.49067     15.80848         0.442252      0.454593     -0.048278
O       9.53705     11.56998      7.29605        -0.019543     -0.961598     -0.439278
O       9.61901     11.43547     11.58900        -1.062505      1.873596     -0.699389
