  # total energy = -7880.31501389 
CRSYTAL
PRIMVEC
    15.2000000000000000    0.0000000000000000    0.0000000000000000
     0.0000000000000000   15.2000000000000000    0.0000000000000000
     0.0000000000000000    0.0000000000000000    17.000000000000000
PRESSURE
8.36689 8.27202 3.98975 0.356348 -0.121271 0.002637
PRIMCOORD
320 1
Pb       3.72240      3.83181      4.18310         0.384530     -0.360825      0.216154
Pb       3.93177      3.91568     16.99249        -0.723902     -0.819073     -0.052474
Pb       3.67318      0.11370      4.33431         0.626852     -0.237433     -0.043543
Pb       3.87385     15.16726      0.01308         0.341526      0.129282     -0.185443
Pb       0.00980      4.02591      4.28274        -0.071931     -0.792500      0.181152
Pb      15.14064      3.66347      0.05882         0.603590      0.807307     -0.115434
Pb       0.06773      0.16013      4.24188        -0.499904     -0.593997      0.415211
Pb      15.14449     15.13086     16.96944        -0.257831     -0.177418      0.229801
Pb       4.08650      3.61744      8.45373        -1.237388      0.756909      0.919333
Pb       3.78901     15.07886      8.67521         0.065522     -0.116512     -0.796500
Pb       0.06146      3.77231      8.46590        -0.180627      0.058636      0.027120
Pb      15.18645     15.05801      8.62961        -0.010579      0.130811     -0.815895
Pb       3.73776      3.83590     12.75210         0.200537     -0.479795     -0.321888
Pb       3.65877     15.18912     12.80130         0.190954     -0.309357      0.263875
Pb      15.19909      3.70390     12.69193         0.126395      0.364140      0.097573
Pb       0.00064      0.07439     12.80878         0.031992     -0.512023     -0.312885
Pb       3.79297      7.47736      4.22722        -0.509409      0.332317      0.211086
Pb       3.89701      7.58973      0.13364        -0.534755      0.290061     -0.427898
Pb      15.16145      7.57598      4.12498         0.489769      0.655015      0.365662
Pb      15.19650      7.55383     16.87147        -0.106834      0.218727      0.185230
Pb       3.84352      7.63203      8.38346        -0.343348      0.007965      0.862961
Pb      15.12193      7.48614      8.38925         0.494010      0.306665      0.256202
Pb       3.69866      7.51067     12.66205        -0.225989      0.687939     -0.035624
Pb      15.12765      7.54647     12.60200         0.537840      0.082904      0.876867
Pb       3.60074     11.36418      4.26520         0.373726      0.400139     -0.050797
Pb       3.90242     11.32822      0.25020         0.100873      0.301739     -0.566112
Pb      15.10811     11.44098      4.21373        -0.100754      0.378917      0.542367
Pb       0.04670     11.42090      0.04652        -0.644822      0.358519     -0.433619
Pb       3.87946     11.37231      8.52111        -0.630327      0.034309      0.004943
Pb      15.07506     11.30881      8.52361         0.557570      0.455225     -0.545715
Pb       3.60239     11.23745     12.90896        -0.169107      0.209300     -0.329810
Pb      15.12745     11.26866     12.73579         0.621668      0.548437      0.670261
Pb       7.43635      3.62090      4.13579         0.948015      0.432049      0.437782
Pb       7.55563      3.78530     16.93232         0.778688     -0.061816      0.460139
Pb       7.54695     15.12568      4.32328         0.044495      0.047551     -0.801817
Pb       7.63479     15.08680      0.01813        -0.432354      0.258711     -0.007210
Pb       7.71461      3.79237      8.37830        -0.033313     -0.138163      0.533034
Pb       7.61729     15.14299      8.37491        -0.160308     -0.286384      0.763154
Pb       7.51156      3.84724     12.75138         0.170823     -0.551362     -0.422174
Pb       7.64444      0.13390     12.69508        -0.210747     -0.283155     -0.216568
Pb       7.69958      7.44475      4.36482         0.151387      0.338928     -0.191540
Pb       7.46455      7.69477     16.89997         0.653825     -0.157153      0.203793
Pb       7.61642      7.63352      8.43457        -0.168619      0.289138      0.198964
Pb       7.55833      7.64170     12.79504         0.151727     -0.181521     -0.463190
Pb       7.52113     11.17850      4.25553         0.291062      0.633337      0.135216
Pb       7.79135     11.46346     16.91654        -1.072275     -0.143993      0.354567
Pb       7.54276     11.46211      8.43803         0.378580     -0.230830      0.339267
Pb       7.50516     11.27904     12.67740         0.186221      0.533958      0.261954
Pb      11.34289      3.76782      4.17984        -0.359782      0.199882      0.373668
Pb      11.39276      3.70903      0.02789        -0.647232      0.100181      0.115417
Pb      11.41105     15.13885      4.27138         0.133091      0.552811     -0.136332
Pb      11.42351     15.00967     16.93703        -0.378418      1.077320      0.722590
Pb      11.43508      3.77258      8.47390        -0.224116      0.145626     -0.116481
Pb      11.36712      0.02354      8.33690        -0.196866     -0.201880      0.552162
Pb      11.32840      3.81138     12.79262         0.307879     -0.085060     -0.421241
Pb      11.44722      0.04737     12.67111        -0.206648      0.000256      0.130225
Pb      11.45150      7.62228      4.16035        -0.320687     -0.259353      0.491093
Pb      11.24182      7.47706     16.89385         0.569459      0.590961      0.057992
Pb      11.32411      7.54008      8.37415         0.153471      0.131262      0.653391
Pb      11.30771      7.53484     12.60702         0.358902     -0.159598      0.484050
Pb      11.36884     11.22109      4.26812         0.252031      0.502215      0.004025
Pb      11.40028     11.55429     16.87956         0.763891     -0.950035      0.316161
Pb      11.47957     11.44503      8.58226        -0.750038     -0.055476     -0.528540
Pb      11.37837     11.40527     12.66386         0.130360      0.089239      0.853406
Ti       1.91635      1.92694      2.18298        -0.157351      0.391836      0.450588
Ti       1.89638      1.90831     15.06172         0.914431      0.494025      0.206359
Ti       1.88910     13.39728      2.18323        -0.362562     -0.362883      0.349276
Ti       1.91335     13.34432     15.14206        -0.562181     -0.729103     -1.218373
Ti      13.29842      2.02536      2.30495         0.084379     -1.884725     -0.105892
Ti      13.30949      1.93366     15.04266        -0.838312     -0.436265     -0.234584
Ti      13.21757     13.36129      2.33066         0.687881     -0.314587     -0.967604
Ti      13.24377     13.33596     14.91304         1.056057     -1.245022      0.618811
Ti       1.92349      1.91213      6.62143         0.339750     -0.915426      1.105297
Ti       1.81215     13.28647      6.55017        -0.176728      0.344588      1.742402
Ti      13.34317      1.93502      6.53381        -0.633178     -0.489369     -0.301477
Ti      13.20169     13.29561      6.45344         1.152513      0.310840      0.052220
Ti       1.94257      1.82472     10.72363        -0.358600      1.239941     -0.703554
Ti       1.76781     13.22636     10.79690         0.876107      0.143288     -0.325674
Ti      13.28862      1.89386     10.68165         0.357941     -0.447518      0.995021
Ti      13.21475     13.27285     10.77842         0.358783      0.846911     -0.416586
Ti       1.88823      5.68456      2.17380        -0.048172      0.667402      0.665746
Ti       1.95297      5.69683     14.96043        -1.083196     -0.248867      0.550113
Ti      13.27510      5.75141      2.18398        -0.834184      0.152702      0.799889
Ti      13.37246      5.63669     14.98447        -0.602551      1.547025     -1.605885
Ti       1.96993      5.68105      6.52917        -0.580524      0.863767      0.369231
Ti      13.29354      5.69059      6.41633         0.022757     -0.061470      1.024224
Ti       1.86740      5.61998     10.63473         0.641393      1.309068      0.019738
Ti      13.33919      5.64875     10.74417        -1.136948     -0.719889     -0.457709
Ti       1.83193      9.65524      2.29085         0.007344     -1.800765     -0.220951
Ti       1.87286      9.54971     15.13997         0.445619      0.004755     -1.396641
Ti      13.28201      9.56408      2.14575        -0.989983      0.251127     -1.024196
Ti      13.33461      9.50874     14.97020        -0.821411      0.123703      1.098035
Ti       1.86850      9.53999      6.48598        -0.720161     -0.330446     -0.530564
Ti      13.25678      9.47132      6.53606        -0.012190      0.822097     -0.264209
Ti       1.87102      9.47102     10.62679         0.571575      0.027392      0.889627
Ti      13.26737      9.46261     10.77183         0.482517      0.067269      0.245169
Ti       5.66769      1.82807      2.19005         0.181170     -0.184367      0.987310
Ti       5.73528      1.87231     14.98300        -1.175928     -0.357400     -0.399274
Ti       5.67184     13.29194      2.33478         0.331035      0.145894     -0.901062
Ti       5.64031     13.27633     14.89484         0.076800      0.930279      2.191292
Ti       5.75424      1.80778      6.50564        -1.109153     -0.280341      0.111926
Ti       5.59295     13.20124      6.38976         0.031847      0.787530     -0.717214
Ti       5.66695      1.85096     10.79453         0.807849      0.755041     -0.139221
Ti       5.57332     13.25274     10.92601         0.536090      0.300692     -0.414520
Ti       5.75030      5.73312      2.29042        -0.369498     -0.838431      0.848298
Ti       5.69033      5.70152     14.93484         0.252294      0.176836      0.108527
Ti       5.77067      5.68418      6.52475        -0.764412      0.242204     -1.186949
Ti       5.70038      5.73110     10.78903        -0.037471     -0.726211     -0.630873
Ti       5.68807      9.48047      2.34408        -0.358227      0.014235     -0.229188
Ti       5.61728      9.55527     15.01725        -0.108305     -0.210653     -0.238732
Ti       5.64020      9.47146      6.37337         0.290565     -0.237621      0.138167
Ti       5.63901      9.50711     10.74709        -0.318370     -0.432441     -0.379119
Ti       9.52900      1.80563      2.28652        -0.531374      1.007531      0.156474
Ti       9.51325      1.90460     14.97953        -0.163647      0.041531     -0.186210
Ti       9.47149     13.27976      2.28201        -0.676338      0.338061      0.319751
Ti       9.42643     13.31334     14.91128        -0.239129      1.050212     -1.300261
Ti       9.49454      1.86683      6.39197         0.592540      0.405423     -1.406046
Ti       9.44560     13.24223      6.36384        -0.653182     -0.482308      1.167645
Ti       9.47917      1.92744     10.66721        -0.152312     -0.879897      0.378023
Ti       9.39316     13.26324     10.83162         0.640307      0.969535     -0.982037
Ti       9.46431      5.68269      2.23182         0.161372      0.226880      0.461922
Ti       9.49504      5.71665     14.93861         0.057062      0.137793      0.059533
Ti       9.54592      5.67554      6.46422        -0.247780     -0.720988     -1.207103
Ti       9.48373      5.66244     10.73972         0.641646     -0.030057     -0.061698
Ti       9.47791      9.49241      2.25246        -0.553272     -0.577145     -0.324391
Ti       9.52012      9.54738     14.93425         0.433179     -0.575505      0.162393
Ti       9.48597      9.50942      6.51766        -0.390456      0.102045     -0.334874
Ti       9.49663      9.54397     10.71593        -0.407682     -0.750009     -1.351972
O       1.90611      1.91226      0.43814        -0.236604      0.218950      0.079685
O       1.91518      1.88997     13.25249        -0.317606      0.040903     -0.083639
O       1.90388     13.34993      0.40057        -0.095366     -0.020463      0.160184
O       1.84385     13.39634     13.35064         0.069720      0.127921     -1.017827
O      13.25778      1.99283      0.52368         0.139393     -0.087342     -0.479123
O      13.36120      1.99699     13.27431        -0.009617     -0.437315     -0.232005
O      13.18756     13.31795      0.49371        -0.190119     -0.178749      0.069625
O      13.19890     13.30506     13.16765         0.313871      0.288226     -0.353418
O       1.92990      1.76536      4.88008         0.134688      0.439189     -1.531420
O       1.82602     13.30782      4.84446         0.151262      0.193158     -2.379862
O      13.25771      1.95079      4.78317         0.316768     -0.217740     -1.076535
O      13.20819     13.30323      4.66895         0.038835      0.040815     -0.040988
O       1.87053      1.92959      8.92973         0.129028     -0.104860      0.492485
O       1.90801     13.25810      9.00163        -0.356829      0.062516      0.395043
O      13.26647      1.81050      8.93859        -0.036591      0.283139     -0.973719
O      13.16219     13.26916      8.94322         0.017431      0.059959      0.448966
O       1.92829      5.49065      0.45389        -0.008007      0.848797     -0.273935
O       1.83838      5.59112     13.19995         0.332573      0.566328     -0.302976
O      13.31664      5.73247      0.45889        -0.197676      0.070873     -1.336212
O      13.29773      5.69466     13.15271         0.187203     -0.384513      0.768755
O       1.84660      5.72729      4.74130         0.194176     -0.306793     -0.477495
O      13.33086      5.71557      4.65979        -0.087657      0.137545     -0.515490
O       1.80552      5.79988      8.87148        -0.145167     -0.398191     -0.215293
O      13.30710      5.68425      8.96827         0.050687     -0.016829     -0.652621
O       1.88090      9.68177      0.50015        -0.343468     -0.081255     -0.100098
O       1.86863      9.45201     13.29419         0.303862      0.332496      0.584273
O      13.23155      9.56235      0.35040         0.310787      0.015897      0.621913
O      13.46001      9.59024     13.22348        -0.413970     -0.447298     -1.467817
O       1.84266      9.53513      4.67094         0.109977      0.388427     -0.314187
O      13.10289      9.44883      4.79514         0.462781      0.391924     -0.941788
O       1.88103      9.53847      8.88933        -0.325185     -0.003132     -0.665218
O      13.28748      9.56073      9.01930        -0.129232     -0.035599     -0.650974
O       5.64780      1.82779      0.46900         0.058526      0.290784     -1.377638
O       5.65779      1.93523     13.18706         0.242703     -0.209438      0.380113
O       5.64741     13.29281      0.52149         0.077705      0.031248     -0.069768
O       5.59794     13.36033     13.18644         0.361863     -0.236804     -1.738015
O       5.57975      1.88884      4.75585         0.357351     -0.075174     -0.382787
O       5.67850     13.19501      4.59427        -0.059676      0.391681      0.663700
O       5.65891      1.89046      8.98969         0.298364     -0.176351     -0.371186
O       5.53844     13.30694      9.13582         0.297631     -0.319817     -0.682796
O       5.73304      5.74676      0.54251        -0.266566     -0.015942     -1.484126
O       5.72265      5.64661     13.15333        -0.102512      0.393983      0.347325
O       5.75256      5.72261      4.68071        -0.474385     -0.268636      1.077289
O       5.68684      5.79071      8.99742         0.550578     -0.228526     -0.145040
O       5.62266      9.39515      0.51761         0.177963      0.280508     -0.212714
O       5.44466      9.50076     13.23096         0.720505     -0.056019      0.239456
O       5.64152      9.35659      4.58290        -0.223634      0.559619      0.306104
O       5.62566      9.53492      8.96987         0.308537     -0.129181     -0.385234
O       9.59242      1.95570      0.52218        -0.204888     -0.195026     -0.434868
O       9.57858      1.97420     13.17666        -0.465595     -0.498761      0.461464
O       9.42093     13.34047      0.47861         0.240547     -0.285448     -0.745736
O       9.37885     13.29850     13.12341         0.381135      0.321863      0.402714
O       9.47731      1.85603      4.55570        -0.074082      0.220180      0.999397
O       9.25958     13.24693      4.63361         0.400855      0.010366     -0.660511
O       9.57529      1.91290      8.88869        -0.358414      0.237514     -0.273791
O       9.38023     13.20669      9.04365         0.353261     -0.071928     -0.950461
O       9.51015      5.72445      0.46742        -0.108766      0.458365     -1.030502
O       9.50531      5.77186     13.11466         0.016692     -0.103992      0.783104
O       9.43506      5.62446      4.68440         0.240609      0.253396      0.558462
O       9.49333      5.60419      8.95226        -0.054117      0.076769     -0.571981
O       9.40631      9.44725      0.45120         0.141914      0.155874      0.304007
O       9.50412      9.42699     13.18412        -0.275239      0.088214     -1.039807
O       9.36380      9.49630      4.70728         0.616069      0.298447     -0.103001
O       9.48258      9.51885      8.88915         0.082003      0.113452      0.739208
O       3.78744      1.95740      2.67705        -1.041283      0.412939     -0.118746
O       3.76321      1.95801     15.41070         0.377028     -0.334578     -0.213958
O       3.73124     13.14175      2.56018        -0.560639      0.053729      0.222196
O       3.79583     13.49621     15.26113         0.327841     -0.188663      0.418012
O       0.00812      1.84140      2.69827        -0.007066      0.290149     -0.590550
O      15.15740      1.92166     15.47239         0.023632      0.006850     -0.287900
O      15.12360     13.46760      2.53768         1.035574     -0.153365      0.232706
O      15.15932     13.24724     15.36305        -0.666286      0.629231      0.363589
O       3.88730      1.84703      6.96949        -0.777165      0.228233     -0.285520
O       3.73486     13.21954      6.89337         0.802225      0.160368     -0.035471
O      15.18233      1.89149      6.83291         0.122969      0.337326      0.366827
O      15.11666     13.34333      6.89307        -0.264328     -0.108564      0.246534
O       3.81298      1.93246     11.13853        -0.898057     -0.249483     -0.022447
O       3.73488     13.38911     11.17021        -0.500438     -0.115509      0.183718
O       0.06167      1.87077     11.10085        -0.613074      0.173169      0.129014
O      15.10295     13.29156     11.09067         1.212760      0.161155      0.012523
O       3.75600      5.63689      2.63371        -0.036720     -0.232118     -0.128296
O       3.78162      5.76068     15.29412         1.198306     -0.486374      0.305803
O      15.16136      5.72575      2.50340         0.350540      0.299020      0.478345
O       0.03430      5.68190     15.31177        -0.293486      0.189335      0.367052
O       3.77414      5.80165      6.97034         1.187558     -0.689910     -0.997825
O      15.16209      5.63562      6.77311         0.104719      0.353593      0.301715
O       3.79328      5.65989     11.05101        -0.290493      0.364341      0.245939
O      15.18761      5.67048     11.06731         0.717069      0.046766      0.009682
O       3.71250      9.71637      2.51267         0.266604     -0.150391      0.345510
O       3.78698      9.60499     15.44344         0.243719     -0.291806      0.374057
O      15.00795      9.62395      2.77340         2.294899     -0.842343     -0.646193
O       0.01023      9.62727     15.42581        -0.137638     -0.085805      0.248294
O       3.73493      9.49903      6.88234         1.261710      0.271765     -0.509268
O      15.13415      9.55617      6.85312         0.186410     -0.304298      0.197413
O       3.78977      9.43817     11.01151        -1.279885      0.103479      0.382352
O      15.19845      9.52364     11.15970        -0.497220     -0.204229     -0.642206
O       7.55388      1.84932      2.52764         0.247145     -0.449986      0.304181
O       7.58179      1.90258     15.26827         0.787560      0.431165      0.334897
O       7.57581     13.55144      2.49037        -0.356754     -0.420091      0.410222
O       7.57260     13.40816     15.22205        -0.012945     -0.359214      0.692963
O       7.63646      1.99233      6.76047        -0.979049     -0.637796      0.389297
O       7.46280     13.25301      6.89384         0.639997      0.083855     -0.200339
O       7.57567      1.96765     11.02502         0.598964     -0.083560      0.429698
O       7.60459     13.16379     11.07473        -2.109487     -0.185512      0.743871
O       7.57242      5.81657      2.60623        -0.049593     -0.005532     -0.021298
O       7.58512      5.73890     15.32290        -0.215038     -0.013423     -0.149209
O       7.63119      5.70304      6.82150        -0.485308      0.211702      0.386579
O       7.67065      5.71279     11.19927        -1.323036      0.131747     -0.229111
O       7.51948      9.32953      2.65766         0.917097      0.050224     -0.308546
O       7.52714      9.52167     15.21249         0.349953      0.059121      0.386335
O       7.57577      9.48557      6.85205        -0.560855     -0.162992     -0.065846
O       7.59426      9.54034     11.00075        -0.141909     -0.203088      0.680766
O      11.42828      1.95050      2.62599        -0.510750      0.288495      0.217449
O      11.36724      1.92924     15.25290         0.737905      0.330836      0.554190
O      11.31185     13.15492      2.61944         0.026148      0.361008      0.313752
O      11.28755     13.30211     15.27937         0.887893      0.194336      0.218307
O      11.33070      1.96253      6.67849         0.564959     -0.664051      0.815586
O      11.30032     13.31891      6.75269        -0.088632     -0.160515      0.120409
O      11.43344      1.79991     11.06056        -0.482718      0.431361      0.050223
O      11.37966     13.35337     11.18619        -0.378457     -0.256440     -0.216316
O      11.35076      5.71192      2.52273         1.364001     -0.097119      0.226156
O      11.38413      5.75797     15.19272         0.116607      0.181239      0.527291
O      11.39464      5.65111      6.80461         0.253155      0.399557      0.269521
O      11.41127      5.53528     11.04727        -0.483020      0.545712      0.351250
O      11.35103      9.55781      2.59733        -0.183092      0.162690     -0.046935
O      11.44418      9.55117     15.18683        -1.164899     -0.190046      0.403583
O      11.35980      9.52232      6.82030        -0.192487      0.083543      0.587470
O      11.41535      9.58501     11.08596        -0.139758     -0.437091      0.105218
O       1.74182      3.81582      2.71152         0.695514     -0.362949     -0.353823
O       1.91261      3.84027     15.45166        -0.178029     -0.435903     -0.496243
O       2.00421      0.05401      2.57878        -0.308716     -0.289012      0.257600
O       1.77901      0.03961     15.38163         0.064629      0.572689      0.329915
O      13.29372      3.84691      2.61166         0.262222      0.521494      0.056298
O      13.25465      3.82774     15.40176         0.160128     -0.508668      0.103518
O      13.11581      0.00946      2.55868         0.118982      0.691853      0.538007
O      13.19228     15.18973     15.40058         0.593417      0.631118     -0.325676
O       1.91210      3.81193      6.89932         0.081883      0.016327     -0.167641
O       1.85284      0.03479      6.95347         0.249282     -0.800219      0.347573
O      13.19778      3.82973      6.85269         0.558864     -0.132414      0.121603
O      13.20085     15.19971      6.87118         0.123953      0.069009     -0.154832
O       1.91776      3.84717     11.09309        -0.243358     -1.339701     -0.124446
O       1.89436     15.19805     11.02372        -0.153840     -0.386461      0.424146
O      13.34307      3.75701     11.02783         0.034494     -0.669546      0.234568
O      13.35866     15.17302     11.16083        -0.136604      0.647520      0.015145
O       1.92759      7.69233      2.45741        -0.450610     -0.826850      0.312441
O       1.94670      7.67588     15.43561        -0.354103     -1.128979      0.210300
O      13.27640      7.70580      2.60033        -0.146143     -1.225868     -0.290823
O      13.38730      7.62029     15.23718         0.019993     -0.477591      0.457125
O       1.89818      7.66252      6.66155        -0.536696     -1.023364      0.904099
O      13.24497      7.63959      6.90765         0.042266     -1.606950     -0.137793
O       1.88143      7.64160     11.02182        -0.196144     -1.205053      0.261644
O      13.26657      7.51177     11.01633        -0.031685      1.809663      0.339051
O       1.72361     11.49163      2.61101        -0.171359      0.529545      0.269878
O       1.97307     11.46891     15.34378        -0.085691     -0.448225      0.465705
O      13.30738     11.43790      2.59986        -0.487149     -0.247694      0.245945
O      13.21836     11.47424     15.29211         0.040650     -0.158830      0.289116
O       1.82446     11.39124      6.85975         0.015786      0.384112      0.168397
O      13.25439     11.42212      6.81796        -0.290272     -0.010496      0.432936
O       1.89017     11.38458     11.15067         0.099748     -0.184237     -0.034281
O      13.31168     11.42764     11.13673        -0.334990     -0.905879     -0.212093
O       5.74176      3.72487      2.57261        -0.549181      1.185778     -0.066603
O       5.72330      3.79063     15.42647        -0.226887      0.864185     -0.346370
O       5.47700     15.16253      2.57934         0.088643      0.572046      0.476898
O       5.72660      0.04498     15.43530        -0.199728     -0.454820     -0.350497
O       5.71458      3.81094      6.84836         0.095707      0.131960     -0.134617
O       5.63041     15.11932      6.76275         0.513750      0.173167      0.189045
O       5.67749      3.78290     11.18080         0.197554      0.824329     -0.229945
O       5.79318      0.02118     11.12078        -0.314675     -0.771748      0.280915
O       5.49487      7.55756      2.61817        -0.028924      0.628483     -0.323317
O       5.62428      7.57881     15.34890         0.169119      0.307226     -0.009148
O       5.71685      7.63237      6.76255        -0.095138     -0.792476      0.533115
O       5.64694      7.60049     11.12296         0.598989     -0.087169      0.427720
O       5.77276     11.39084      2.60237         0.117300     -0.745295     -0.072920
O       5.67779     11.47885     15.41202         0.043599     -0.779761     -0.232960
O       5.69847     11.31170      6.67571        -0.323978      0.795411      0.535184
O       5.51641     11.33421     11.20422         0.620719      0.803546      0.097038
O       9.40575      3.87398      2.58858         0.125982     -1.468241      0.100654
O       9.52147      3.88452     15.46327        -0.308039     -0.684445     -0.678158
O       9.50881     15.19989      2.71171         0.487074     -0.443604     -0.332978
O       9.51821      0.05696     15.45357        -0.291562     -0.458936     -0.701553
O       9.48859      3.75108      6.73955        -0.061280      0.768053      0.539925
O       9.35785     15.15415      6.72090         0.198096      0.074009      0.200786
O       9.46356      3.73853     11.16976         0.326669      0.785012     -0.274859
O       9.35742     15.18631     10.91353         0.304564      0.718567      0.936824
O       9.59884      7.56272      2.80843        -0.812239      1.127948     -1.067793
O       9.45572      7.68488     15.29373         0.017745     -1.148313      0.247726
O       9.52583      7.59501      6.73850        -0.197352     -0.481010      0.593492
O       9.54973      7.60358     10.93616         0.099359      0.107052      0.526710
O       9.27590     11.42098      2.50796        -0.036380     -1.322869      0.237178
O       9.46416     11.43527     15.18657        -0.254719      0.033779      0.695610
O       9.41941     11.38107      6.77589         0.062400      0.716181      0.215973
O       9.51569     11.38247     11.14845         0.158950     -0.671028      0.169083
