  # total energy = -7878.16198894 
CRSYTAL
PRIMVEC
    15.2000000000000000    0.0000000000000000    0.0000000000000000
     0.0000000000000000   15.2000000000000000    0.0000000000000000
     0.0000000000000000    0.0000000000000000    17.000000000000000
PRESSURE
7.89248 7.5882 5.28825 -0.252552 0.021027 -0.112839
PRIMCOORD
320 1
Pb       3.84489      3.61528      4.13752        -0.136145      0.412168      0.230200
Pb       3.75149      3.68842     16.85214         0.144424      0.213920      0.022641
Pb       3.83429     15.10177      4.10806        -0.366750     -0.299068      0.677566
Pb       3.59275     15.18486     16.88160         0.825392      0.015418      0.697112
Pb       0.01636      3.51991      4.15110        -0.105442      0.911485      0.399795
Pb      15.13820      3.83922      0.02491        -0.383868     -0.401387      0.020136
Pb      15.13106     15.05630      4.29832         0.606392      0.087874     -0.541671
Pb      15.02283     15.19576      0.12209         0.176742      0.368528     -0.460129
Pb       3.66152      3.96101      8.59274         0.410932     -0.596916     -0.693363
Pb       3.80790     15.10495      8.57138        -0.327059      0.546744     -0.856649
Pb       0.10491      3.77870      8.52089        -0.244961      0.316060     -0.493957
Pb      15.17533     15.18153      8.25198         0.680551     -0.218909      0.522644
Pb       3.72086      3.81961     12.68382        -0.018917     -0.029251     -0.322362
Pb       3.66664      0.10227     12.78928        -0.210302     -0.413253     -0.375729
Pb      15.03896      4.03923     12.71295         0.152379     -1.208802     -0.112746
Pb      15.12219      0.15349     12.77532         0.096940     -0.800847     -0.270336
Pb       3.84188      7.48367      4.14822        -0.025738     -0.270664      0.420260
Pb       3.66373      7.53726     16.79752         0.638266     -0.524754      0.209192
Pb       0.01025      7.59581      4.29304        -0.399813     -0.621116     -0.648314
Pb      14.93265      7.54126      0.04746         0.635309     -0.164059     -0.356352
Pb       3.84505      7.63602      8.52395         0.031781     -0.359853     -0.582844
Pb       0.13558      7.62407      8.44973        -0.197695     -0.006115     -0.425745
Pb       3.76615      7.68874     12.77278         0.054893     -0.562271      0.061780
Pb       0.05153      7.70052     12.73753        -0.758279     -0.071040      0.287756
Pb       3.92546     11.15911      4.13873        -0.186438      0.957651      0.729804
Pb       3.74616     11.37777      0.01863         0.158763     -0.243966     -0.480291
Pb       0.16439     11.25956      4.16959        -0.331730      0.471642      0.074855
Pb      15.07962     11.36396      0.06440         0.549209     -0.182321     -0.558385
Pb       3.82760     11.39412      8.54728         0.482067     -0.026384     -0.226537
Pb       0.19016     11.46319      8.31921        -1.019062     -0.355135      0.723963
Pb       3.78183     11.50818     12.76647        -0.326198      0.243992     -0.632105
Pb       0.04770     11.43778     12.89759         0.060852      0.469318     -0.896623
Pb       7.55525      3.75088      4.37734         0.104704      0.278614     -0.711372
Pb       7.55142      3.72590     16.86420        -0.378613      0.137785     -0.047783
Pb       7.61154     15.09126      4.21923        -0.201400     -0.239146      0.276213
Pb       7.59292      0.00513     16.86227         0.179281     -0.655590      0.206122
Pb       7.36228      3.72898      8.77765         0.558888      0.218756     -0.734512
Pb       7.62533      0.01820      8.60981         0.049166     -0.213780     -0.768313
Pb       7.67122      3.91047     12.77749        -0.503778     -0.951950     -0.409781
Pb       7.48846     15.01850     12.79544         0.917938      0.780456     -0.203221
Pb       7.63497      7.54161      4.05095        -0.482056     -0.752764      1.248337
Pb       7.73594      7.63803      0.00112        -0.623876     -0.253221     -0.349975
Pb       7.48736      7.58613      8.52487         0.512242     -0.577734      0.005317
Pb       7.48989      7.65395     12.66169         1.027329      0.150930      0.461891
Pb       7.63124     11.39627      4.34392         0.109147     -0.020944      0.124737
Pb       7.50315     11.36600     16.91324         0.429875      0.499176      0.103423
Pb       7.70297     11.36662      8.69326        -0.373028      0.237012     -0.777807
Pb       7.62305     11.48338     12.78953         0.281287     -0.268433     -1.058651
Pb      11.21639      3.76373      4.43630         0.611618      0.101943     -0.417185
Pb      11.24111      3.69453     16.98805         0.944405     -0.007889     -0.503812
Pb      11.30142     15.15411      4.25456         0.696950     -0.273054      0.147372
Pb      11.33677      0.14794      0.11286         0.074403     -0.347771     -0.974988
Pb      11.41428      3.88034      8.52340        -0.432031     -0.552801     -0.469300
Pb      11.51985      0.01923      8.34837        -0.431277     -0.129877      0.341214
Pb      11.34284      3.84331     12.67801         0.651918     -0.424987     -0.216168
Pb      11.44643     15.18818     12.59035        -0.567067      0.245292      0.238944
Pb      11.26841      7.52781      4.30462         0.702543     -0.212573     -0.201011
Pb      11.43198      7.63316     16.99125        -0.459391     -0.343128      0.191319
Pb      11.39366      7.58080      8.62366        -0.289109     -0.077367     -1.014280
Pb      11.51861      7.75020     12.81971        -0.147561     -0.110884     -0.613145
Pb      11.27915     11.32498      4.26967         0.232528      0.257748      0.192362
Pb      11.36573     11.43165      0.00578        -0.805089     -0.102589     -0.163059
Pb      11.48507     11.34325      8.33717        -0.050791      0.535074      0.299668
Pb      11.43868     11.54487     12.54929        -0.164277     -0.181014      0.543227
Ti       1.92419      1.82019      2.23433        -1.099069     -1.478558      0.341838
Ti       1.73398      1.84315     14.97960         0.541581      0.249400      0.520279
Ti       1.99074     13.18136      2.12011        -0.320190      1.378313      2.297477
Ti       1.84733     13.23220     15.04889        -0.455038     -0.585747     -0.736180
Ti      13.24860      1.82515      2.31692         0.042344      0.574922     -0.585727
Ti      13.30802      1.88975     14.87182        -1.520824     -0.429835      1.440156
Ti      13.33844     13.19476      2.25417        -0.652566      0.668152      2.382812
Ti      13.20284     13.24296     15.00892         0.873158      1.645104      0.088375
Ti       1.92942      1.86269      6.39340         0.971689     -0.681001     -0.267229
Ti       1.99302     13.17761      6.36009         0.562850      2.333284     -0.503840
Ti      13.35848      1.96976      6.57787        -1.555972     -0.192044      0.135066
Ti      13.34376     13.24326      6.36594        -0.655768     -0.414144      0.516690
Ti       1.76019      1.90868     10.69940         0.584916     -0.125154      0.079335
Ti       1.89351     13.38082     10.75886        -0.500739     -1.041345      1.202552
Ti      13.32245      1.86978     10.60646        -0.909310      1.217959      1.115305
Ti      13.39686     13.38085     10.61611         0.113209     -1.154940     -0.493652
Ti       1.88298      5.62776      2.19218        -0.550800     -0.722385      2.283171
Ti       1.81594      5.56811     14.88845        -0.167339      0.309181     -0.042616
Ti      13.30558      5.57980      2.25348        -0.425954      0.026448      1.084599
Ti      13.18515      5.60488     14.98043         1.289931      0.074175      1.112068
Ti       1.94035      5.65703      6.33423         0.540494     -0.406302      0.446665
Ti      13.39522      5.69941      6.40897        -0.626473     -1.065667      0.878610
Ti       1.84468      5.77008     10.75571         1.117753     -1.312282      0.400711
Ti      13.31546      5.81345     10.63876        -0.274976     -0.425017      0.222564
Ti       1.91259      9.37328      2.13541         0.019337      0.201117      1.904422
Ti       1.80223      9.40295     14.99406        -0.097978      0.316054      2.152538
Ti      13.22735      9.45863      2.30405        -0.106692     -1.479183      0.643176
Ti      13.22618      9.53994     15.03503        -0.112293     -1.118999     -0.790771
Ti       1.95317      9.43201      6.41187         0.659934     -0.382573      0.591776
Ti      13.26166      9.39487      6.47785         0.708457      0.666836      0.234502
Ti       1.92136      9.52528     10.80916        -0.832255      1.270448      0.233942
Ti      13.30988      9.60020     10.63632         0.660231     -0.075169      0.955385
Ti       5.72272      1.81457      2.18181         0.230422      0.095294     -0.935518
Ti       5.62168      1.76975     14.95506         0.146526      0.881385      0.309956
Ti       5.76202     13.17123      2.21853        -0.033474      0.434644     -0.362433
Ti       5.59818     13.23967     14.91548         1.159705      0.295585      0.770400
Ti       5.69466      1.84697      6.53816        -1.154846      0.823783      0.787709
Ti       5.76952     13.25788      6.54463        -0.241328     -0.154118      1.108699
Ti       5.60416      1.83849     10.76277         0.396912      1.368047      0.456387
Ti       5.71073     13.40475     10.70510        -0.547448     -1.493970     -0.293685
Ti       5.64229      5.64816      2.06165         0.585537     -0.564581      0.065307
Ti       5.71152      5.62968     14.83057        -0.723781      0.444165      1.716851
Ti       5.73207      5.60797      6.45878        -0.184602      1.192325      1.403770
Ti       5.73650      5.73938     10.87783        -1.314760     -0.973033     -0.190442
Ti       5.68820      9.39201      2.19357         0.780545      0.192445     -0.734118
Ti       5.64892      9.49608     14.87939        -0.385387     -0.893450      1.074395
Ti       5.75584      9.44243      6.50511        -0.513180      0.443263      0.504551
Ti       5.70724      9.57392     10.79582         0.075993      0.868390      0.415465
Ti       9.49205      1.78366      2.29444         0.000648      0.553640     -0.288781
Ti       9.44959      1.87386     14.81628         0.965143     -1.174231      1.247162
Ti       9.49593     13.21905      2.20197        -0.052296     -0.689637      0.132651
Ti       9.52560     13.30430     14.87351        -0.239272     -0.002822      1.644137
Ti       9.42131      1.89187      6.53617         1.010656      0.221778      2.198562
Ti       9.53574     13.30837      6.54011        -0.986826     -0.561339      0.400462
Ti       9.45726      1.88505     10.66081        -0.074979     -0.389277      0.026800
Ti       9.53825     13.28378     10.58012         0.373978      0.276779      0.237290
Ti       9.50469      5.59600      2.12183        -0.226354     -0.312075     -0.146596
Ti       9.46097      5.72795     14.94004         0.177561     -0.207637      1.833831
Ti       9.52373      5.68554      6.58252        -1.142553     -0.419693      0.574538
Ti       9.52795      5.65549     10.77007        -0.155550      0.890368     -0.371414
Ti       9.42202      9.43125      2.30902         1.111630      1.016848      0.632499
Ti       9.41499      9.54783     14.85764         0.736206     -0.478185      0.623050
Ti       9.44292      9.46642      6.61388         0.627392      0.159908     -0.265287
Ti       9.57746      9.42829     10.69176        -1.438964      1.415033      0.712458
O       1.80943      1.63121      0.48456         0.083112      0.518695     -1.000842
O       1.74287      2.02582     13.24295         0.007510     -0.561505     -0.793503
O       1.95621     13.14378      0.37689        -0.275151      0.158784     -1.289295
O       1.90653     13.17394     13.24720        -0.173898      0.172446      0.559374
O      13.19876      1.85466      0.51880         0.040427     -0.506385      0.103688
O      13.30196      1.92438     13.11218        -0.081822      0.005635     -0.242667
O      13.37527     13.14478      0.52447        -0.193340      0.229123     -1.416663
O      13.14039     13.37321     13.26137         0.489990     -0.512102     -0.594417
O       2.06713      1.76172      4.57903        -0.351053      0.552807      0.351282
O       2.06328     13.23060      4.56885        -0.242965     -0.496061      1.177861
O      13.06005      1.96558      4.86698         0.604600     -0.043311     -1.487490
O      13.28065     13.23289      4.62217         0.304029      0.009299     -0.682323
O       1.74479      1.94067      8.94578         0.096650     -0.345603     -0.672184
O       1.80893     13.24032      9.02409         0.219994      0.330811     -1.282022
O      13.44407      1.81384      8.87894        -0.171284      0.007011     -1.266092
O      13.36651     13.31749      8.81365         0.232887     -0.119819      0.635451
O       1.93441      5.53825      0.49224        -0.517997      0.261445     -2.210631
O       1.72212      5.57781     13.08588         0.409343     -0.124103      0.558707
O      13.21788      5.53408      0.46625         0.560525      0.502015     -0.155149
O      13.27425      5.62021     13.22292        -0.335943      0.318304     -0.811793
O       1.94166      5.57946      4.57662         0.392612      0.234068      0.053731
O      13.13666      5.60391      4.67993         0.502529      0.024971     -0.133623
O       1.89621      5.71398      8.97349        -0.149413      0.464933      0.137023
O      13.41263      5.97996      8.86943        -0.343320     -0.489085      0.882430
O       1.97316      9.45830      0.42534        -0.137171     -0.516131     -1.121534
O       1.77080      9.52803     13.28938         0.056965      0.020515     -2.223005
O      13.23901      9.33220      0.51411        -0.046969      0.516811     -0.260634
O      13.25457      9.58331     13.22932        -0.213649     -0.352888      0.791038
O       2.07740      9.53063      4.66044        -0.544484     -0.362002     -0.645274
O      13.24368      9.33386      4.73137         0.239653      0.197634     -1.062896
O       1.98652      9.45332      9.06746        -0.213052      0.048711     -0.926149
O      13.35865      9.54281      8.88643        -0.128553     -0.438149     -0.525692
O       5.71034      1.87057      0.34388         0.033178     -0.294954      1.159031
O       5.63498      1.68338     13.20908         0.045670      0.433156     -0.589671
O       5.81802     13.14194      0.44062        -0.130324      0.196955     -0.134953
O       5.80320     13.22819     13.13551        -0.563537      0.084592     -0.032903
O       5.61072      1.90052      4.77134         0.369406      0.079233     -0.792621
O       5.70115     13.25598      4.79543         0.280878     -0.111602     -0.728717
O       5.55801      1.95254      8.99718         0.269061     -0.383282     -0.279329
O       5.69630     13.43737      8.92578        -0.178368      0.071993      0.269016
O       5.66055      5.62024      0.28524         0.104553      0.015179      0.354116
O       5.83535      5.60804     13.08949        -0.258799     -0.026302     -0.921098
O       5.71872      5.61386      4.72531        -0.005515     -0.030166     -1.510441
O       5.69884      5.75807      9.11068        -0.171040     -0.123975     -0.295166
O       5.69615      9.34941      0.41309        -0.166456      0.192388     -0.115987
O       5.73811      9.64348     13.13465        -0.177866     -0.112592     -0.439514
O       5.69448      9.35989      4.72842         0.140462      0.113196      0.135812
O       5.67292      9.58290      9.05657        -0.228112     -0.699035     -0.736574
O       9.54039      1.73834      0.49130        -0.019226      0.416035     -0.034700
O       9.47058      1.65367     13.12016         0.039767      0.781723     -1.240740
O       9.37639     13.26030      0.43850         0.305532     -0.464196     -0.028390
O       9.61670     13.30670     13.13484        -0.386214     -0.181530     -1.077330
O       9.44533      1.80838      4.79255         0.115399     -0.102929     -1.700743
O       9.43735     13.20360      4.75929        -0.053164      0.421672     -0.569674
O       9.37528      2.01570      8.88404         0.340265     -0.315755      0.384480
O       9.58892     13.20837      8.78869        -0.173550      0.168620      1.135881
O       9.37170      5.62108      0.26061         0.332434     -0.245055      1.843391
O       9.39618      5.75380     13.22329         0.484194     -0.029447     -1.670380
O       9.39952      5.62269      4.81352         0.152314      0.285506     -1.014744
O       9.52759      5.52074      9.01795         0.040957      0.591599     -0.291546
O       9.53255      9.49121      0.58905        -0.416067     -0.023809     -1.220463
O       9.52210      9.52734     13.10318        -0.040241     -0.039337      0.143565
O       9.44799      9.45000      4.81264        -0.007590     -0.361716     -0.165779
O       9.57114      9.59790      8.92904         0.020051     -0.192420     -0.322182
O       3.79732      1.80739      2.43600         1.522231     -0.081764      0.242655
O       3.70955      1.76332     15.25375        -0.053829      0.346796      0.284827
O       3.89123     13.25690      2.45536        -0.423550     -0.352644     -0.008427
O       3.75715     13.22475     15.27022        -0.038661     -0.029955      0.307639
O      15.14560      1.73103      2.61689         0.600787     -0.094454      0.230229
O      15.10432      1.87851     15.45009         0.068860     -0.278896     -0.141716
O       0.05445     13.32626      2.65010        -0.226126     -1.027743     -0.461379
O      15.19176     13.08074     15.34729        -0.631468      0.052443      0.191611
O       3.70387      1.88287      6.89053         1.165505      0.025843      0.142141
O       3.86892     13.39321      6.98809        -1.130354     -0.719208     -0.468016
O       0.03828      1.92194      6.66724        -0.271566     -0.037974      0.396423
O       0.02119     13.29958      6.68531         0.914438     -0.550084     -0.064662
O       3.63636      1.77349     11.06005         1.333786     -0.023468      0.556205
O       3.77665     13.44542     11.11650         0.111326      0.006966      0.062508
O      15.11930      1.94714     11.05123         0.569789     -0.130407      0.591843
O       0.00059     13.19838     11.22454        -1.119360      0.317666     -0.235130
O       3.78230      5.65591      2.41643         0.357985     -0.398119      0.543335
O       3.75036      5.52346     15.07742        -0.575790      0.302930      0.390151
O      15.17317      5.43766      2.80653         0.428268      1.327491     -1.186205
O      15.10807      5.53221     15.33948         0.274821      0.061732      0.160512
O       3.81789      5.79972      6.86006        -0.347244     -0.279540      0.093917
O       0.08857      5.60993      6.73405        -0.992949      0.560095      0.063870
O       3.82913      5.76684     11.17928        -1.045406     -0.374755      0.124958
O      15.17598      5.74977     11.09135        -0.104816      0.096363     -0.273414
O       3.88000      9.39812      2.63312        -1.584418     -0.092421     -0.528120
O       3.68543      9.23744     15.28166         1.264587      0.760907     -0.350240
O       0.03514      9.42558      2.63704         0.019044      0.068448     -0.230129
O      15.10188      9.48157     15.44874        -0.047603     -0.212976      0.042502
O       3.81298      9.46797      6.86967         0.320530     -0.157223      0.242232
O       0.11054      9.47957      6.75649        -0.909050     -0.113046      0.099029
O       3.75996      9.47309     11.21587         0.510402      0.193054      0.133944
O      15.19461      9.54159     11.09158        -0.064469      0.152577      0.125765
O       7.64099      1.76427      2.51428        -0.786010     -0.194959      0.384067
O       7.58050      1.76774     15.24697        -0.365764      0.337974      0.097972
O       7.63362     13.16415      2.70253        -0.133495      0.457203     -0.079686
O       7.62699     13.22245     15.24079        -0.979007     -0.280461     -0.128086
O       7.57021      1.97192      6.89522        -0.456736     -0.042741     -0.003389
O       7.58504     13.25369      6.99485        -0.119796      0.516955     -0.280625
O       7.58796      2.04811     10.89689        -0.606666     -0.638042      0.519202
O       7.59501     13.20244     10.97459         0.640680      0.465374      0.328768
O       7.55429      5.66632      2.47836         0.747441     -0.057661     -0.033756
O       7.54547      5.51411     15.22773         1.067953      0.107118      0.260537
O       7.58057      5.69974      6.92655         0.058112     -0.030569      0.127842
O       7.60895      5.64406     11.09696         0.355370      0.216311      0.254302
O       7.58094      9.39114      2.65173        -0.429741     -0.013011     -0.357283
O       7.50450      9.51330     15.29757         0.515495     -0.078742     -0.149475
O       7.66591      9.46609      7.07805        -1.988694      0.018022     -0.448375
O       7.59323      9.64589     11.09453        -0.091668     -0.400787      0.022403
O      11.42604      1.83861      2.70335        -1.539699     -0.160341     -0.012742
O      11.40033      1.81717     15.37137        -0.343764     -0.390299     -0.198801
O      11.38991     13.17620      2.57903         0.191981     -0.490774     -0.097863
O      11.38215     13.24345     15.33294        -0.348302     -0.235439      0.693877
O      11.37782      1.89634      6.98517         0.025446     -0.043356     -0.117369
O      11.40722     13.28320      6.64310         0.817133     -0.269476      0.604643
O      11.36476      1.82970     10.96120         0.855547      0.366987      0.091194
O      11.42989     13.45067     10.93730         0.090024     -0.366362      0.199128
O      11.38580      5.57098      2.60728        -1.381749      0.141768     -0.322250
O      11.41087      5.63075     15.41508        -1.892322      0.472719     -0.430305
O      11.39778      5.69823      6.85337         0.594931      0.211978      0.376817
O      11.40287      5.75014     11.14335         0.831478      0.266324     -0.150599
O      11.36128      9.35676      2.73995         0.175797      0.592248     -0.338349
O      11.27708      9.35458     15.42266         1.002208      0.474244     -0.466127
O      11.38691      9.40470      6.90952         0.502578      0.339221     -0.097677
O      11.37198      9.42234     11.00440         1.881004      0.021313      0.354432
O       1.90286      3.64952      2.51458         0.032562      0.721758      0.130480
O       1.75179      3.67036     15.42942         0.723644      0.812821     -0.021657
O       1.95602     15.05798      2.57882         0.026957      0.187241     -0.235137
O       1.84469     15.12007     15.35388        -0.572206     -0.022409     -0.272308
O      13.33442      3.71369      2.56468        -0.239607     -0.510666      0.380509
O      13.15388      3.72078     15.38792         0.426746     -0.007527     -0.316088
O      13.23613     15.11035      2.67901         0.056962     -0.349921     -0.170730
O      13.37478     15.13476     15.34361        -0.162338      0.177901      0.178006
O       1.88871      3.79343      6.83716         0.432651     -0.074968     -0.007398
O       1.86941     15.12516      6.75940         0.024332      0.182780      0.007416
O      13.27820      3.81564      7.04258         0.340188      0.436818     -0.425421
O      13.32616     15.17695      6.76778        -0.024008     -0.072529     -0.109704
O       1.92918      3.77808     10.94292        -0.103247      1.127537      0.495359
O       1.71209     15.18206     11.22136         0.132497      1.061387     -0.046031
O      13.35777      3.82718     10.92187        -0.683986      0.801626     -0.002248
O      13.39751      0.01281     11.03556        -0.030133     -0.114381      0.185636
O       1.85214      7.50356      2.56085         0.160530      0.534222     -0.086285
O       1.74231      7.41956     15.21651         0.158342      0.490101      0.513847
O      13.28386      7.48871      2.60803         0.551422      0.339215      0.037903
O      13.29721      7.55319     15.47264        -0.420328     -0.094944     -0.686886
O       1.89144      7.55119      6.79403         0.048833      0.351608     -0.061949
O      13.34000      7.53291      6.73111         0.303572      0.488285      0.471282
O       1.88339      7.58172     11.26538        -0.059239      0.852806     -0.472178
O      13.40121      7.69995     11.23258        -0.853928     -0.704077     -0.643414
O       2.03253     11.31869      2.51446        -0.492248     -0.635852      0.001650
O       1.88686     11.23872     15.38794         0.351461      0.841343      0.149455
O      13.32148     11.27869      2.58130         0.153904      0.614364      0.177155
O      13.19188     11.34526     15.38814         0.019775      0.013079      0.485063
O       1.96821     11.37245      6.80772         0.179999     -0.147680      0.017752
O      13.40458     11.32409      6.70656        -0.526268      0.339512      0.276747
O       1.88998     11.49135     11.14966         0.517471     -1.722224      0.238299
O      13.15935     11.45906     11.00655         0.377279     -0.267971     -0.233683
O       5.79289      3.69268      2.57795        -0.452842      0.170246     -0.234783
O       5.60934      3.72875     15.28468         0.356344     -0.918414     -0.140501
O       5.80371     15.06873      2.76032        -0.246265      1.028386     -1.120525
O       5.58024     15.07339     15.35061         0.596208      0.490656     -0.105446
O       5.60434      3.86238      6.94743         0.134145     -1.550226      0.035637
O       5.72950      0.06473      6.92832         0.074961     -0.868568     -0.051062
O       5.68043      3.70347     11.15658        -0.564048      0.882694      0.133988
O       5.70202     15.19951     11.21639         0.324045      0.540118     -0.216857
O       5.60865      7.52523      2.55875         0.673175     -0.738348     -0.105655
O       5.71600      7.51204     15.08143        -0.114392      0.660446      0.261830
O       5.71830      7.60063      6.99449         0.060677      0.138582     -0.208268
O       5.66239      7.62937     11.24569         0.338618      0.444774     -0.421296
O       5.76857     11.29046      2.58659        -0.149847     -0.101547     -0.024436
O       5.51965     11.38909     15.29400         0.411524     -1.228132      0.141422
O       5.65139     11.33458      6.97146         0.289278      0.193668     -0.435888
O       5.59363     11.53419     10.94123        -0.291931     -1.421781      0.696467
O       9.47219      3.65973      2.70206        -0.192331      1.293662     -0.579698
O       9.56820      3.70349     15.06517        -0.332985      1.052900      0.560883
O       9.59193     15.05380      2.48933        -0.335234      1.152203      0.827352
O       9.48055     15.11916     15.23842         0.049801      0.511854      0.542199
O       9.56182      3.76969      6.83359        -0.045536      0.196035     -0.213568
O       9.47976     15.14063      6.96127        -0.222496      1.182781     -0.219480
O       9.54897      3.82657     11.16385        -0.029585     -0.706324      0.352406
O       9.42579     15.19450     11.04401        -0.338541     -0.487300     -0.593262
O       9.47641      7.52534      2.51941         0.066220     -1.174605      0.103378
O       9.43356      7.59839     15.33174        -0.348310     -0.031226     -0.118613
O       9.48432      7.57992      7.01635         0.131793     -0.137947      0.029851
O       9.48711      7.63010     11.04213        -0.399892     -1.056782      0.080610
O       9.41219     11.32334      2.82308         0.550117     -0.302159     -0.881351
O       9.50733     11.32292     15.42721        -0.032427      0.486590     -0.517847
O       9.34183     11.42278      6.84649         1.076132     -1.081862      0.067045
O       9.57387     11.41535     11.09199        -0.047523      0.422618     -0.362970
