  # total energy = -7865.12325689 
CRSYTAL
PRIMVEC
    15.010000000000000    0.0000000000000000    0.0000000000000000
     0.0000000000000000   15.010000000000000    0.0000000000000000
     0.0000000000000000    0.0000000000000000    16.400000000000000
PRESSURE
17.0001 17.4665 9.08847 -0.008417 0.218097 -0.059614
PRIMCOORD
320 1
Pb       3.57421      3.69818      4.03558         0.619860      0.333610      0.640923
Pb       3.85062      3.68276     16.37984        -0.774016      0.465010      0.088347
Pb       3.76602     14.95115      4.12992         0.203693      0.347827     -0.074190
Pb       3.69748      0.03427     16.38170         0.047050     -0.305642     -0.018418
Pb      15.00268      3.74683      4.17693         0.298293     -0.166256     -0.423511
Pb      15.00405      3.86555      0.07705        -0.027955     -0.346409      0.059415
Pb       0.01799     14.94980      4.12262         0.130165      0.439932      0.119555
Pb      14.94964      0.03380     16.30252         0.282790     -0.176023      0.041517
Pb       3.90256      3.67315      8.19888        -0.818892      0.802736      0.150435
Pb       3.85711     14.95833      8.35647        -0.990833      0.318303     -1.018518
Pb       0.09462      3.66275      8.09947         0.354107      0.423939      0.314427
Pb       0.14456      0.04476      8.30377         0.064394     -0.045252      0.103883
Pb       3.86173      3.77939     12.36240         0.154006     -0.053020     -0.533830
Pb       3.80627      0.05298     12.26766        -0.587913     -0.426997      0.515004
Pb      14.98957      3.69235     12.26679         0.139185      0.184607      0.315087
Pb      14.90891     15.00730     12.27104         0.489936     -0.100456      0.399477
Pb       3.56812      7.64226      4.11486         0.618585     -1.029788      0.368736
Pb       3.74897      7.49478     16.36730        -0.040349     -0.004225      0.184944
Pb      14.86052      7.46483      4.11849         0.281083     -0.117642     -0.100507
Pb      14.99945      7.47569      0.03855        -0.342421     -0.234273     -0.564477
Pb       3.66281      7.48316      8.33202         0.001112      0.031561     -0.699685
Pb      14.95190      7.44607      8.10294         0.383556      0.084165      0.350899
Pb       3.81770      7.41187     12.38066        -0.915788      0.501572     -0.409312
Pb       0.13700      7.49825     12.31138        -0.277706     -0.113631     -0.215739
Pb       3.63542     11.27007      3.91232         0.086057      0.595109      1.339076
Pb       3.68592     11.29012      0.10324         0.401444     -0.078325     -0.776482
Pb      14.80945     11.26205      4.18791         1.174203      0.291071     -0.255026
Pb      14.97622     11.14083     16.36182        -0.349777      0.807650      0.222644
Pb       3.60920     11.15429      8.25104        -0.024738     -0.280138     -0.263226
Pb      14.89565     11.16724      8.25170         0.302135      0.039032      0.036976
Pb       3.73496     11.19606     12.44164        -0.139400      0.095279     -0.412665
Pb      14.98801     11.18709     12.29858         0.007182      0.081589     -0.551956
Pb       7.46401      3.73410      4.24767        -0.010071     -0.422430     -0.303569
Pb       7.46938      3.80473      0.06782         0.168359     -0.384723     -0.472805
Pb       7.42363      0.04966      4.15674        -0.042164      0.389764      0.049846
Pb       7.55291      0.03397      0.03943         0.100717     -0.103258     -0.114465
Pb       7.60435      3.84553      8.29448        -0.353175     -0.368094     -0.703494
Pb       7.41742     14.75198      8.36800         1.010943      1.218649     -1.128069
Pb       7.58925      3.59979     12.35820        -0.133852      0.594804     -0.376909
Pb       7.50078      0.02471     12.28864         0.080649     -0.034130      0.975105
Pb       7.40082      7.49565      4.15385         0.378214     -0.189850     -0.185730
Pb       7.46170      7.47528      0.13157         0.370623      0.042622     -0.047813
Pb       7.49556      7.55745      8.14702        -0.327737     -0.316294     -0.091707
Pb       7.55230      7.35448     12.32891         0.374250      0.182329     -0.499293
Pb       7.19834     11.29550      4.12178         1.117258     -0.136401      0.322632
Pb       7.46145     11.25882      0.08991        -0.092458      0.149123     -0.911782
Pb       7.38991     11.12784      8.34923         0.088163      0.090790     -0.490039
Pb       7.52346     11.17732     12.50757        -0.375288      0.101224      0.003273
Pb      11.43848      3.70637      4.16797        -0.623954     -0.322707     -0.461678
Pb      11.21531      3.81155      0.04177         0.202825     -0.259948     -0.177281
Pb      11.26891      0.03019      4.19263        -0.221006      0.381424     -0.339950
Pb      11.22330      0.03613     16.37490        -0.165184     -0.425359      0.121607
Pb      11.32978      3.77463      8.22394         0.146184     -0.322497     -0.100973
Pb      11.34639     14.93253      8.23390        -0.272143      0.248619      0.068568
Pb      11.33648      3.75582     12.34022        -0.367303     -0.152003     -0.341872
Pb      11.26745     14.89022     12.25617         0.439139      0.407259     -0.030596
Pb      11.02424      7.42681      4.14259         0.357637     -0.017200     -0.812435
Pb      11.20638      7.47868      0.02369         0.338180     -0.506536      0.728453
Pb      11.19246      7.52100      8.22022         0.121460     -0.010993     -0.616396
Pb      11.23658      7.48953     12.42729         0.263096     -0.344135     -0.622071
Pb      11.10550     11.34960      4.23981         0.010698     -0.249579     -0.914015
Pb      11.10290     11.34594      0.06501         0.429391     -0.120011      0.087391
Pb      11.13769     11.19224      8.19303         0.388629      0.128180      0.259712
Pb      11.26488     11.23399     12.37399         0.189395     -0.031303      0.248575
Ti       1.83635      1.81358      2.12381         0.283388      0.589250      0.373017
Ti       1.90878      1.82587     14.31215        -0.884463      1.112296     -0.245339
Ti       1.80785     13.16353      2.04554        -0.572754      0.135328      0.817845
Ti       1.83618     13.13007     14.24187         0.214162      0.234785      1.651849
Ti      13.13966      1.79854      1.96363        -0.393360      1.747985      1.887056
Ti      13.11863      1.86306     14.40991         0.361231     -0.018430     -0.728570
Ti      13.08327     13.20017      2.12712         0.181831     -0.508980     -0.655744
Ti      13.12158     13.01480     14.41860        -0.148007      2.169271     -0.739214
Ti       1.99245      1.77475      6.15181        -1.366868      0.800580     -0.080413
Ti       1.84910     13.12461      6.28250         0.043630     -0.249845     -0.617323
Ti      13.19521      1.76551      6.23301        -0.169133      1.048071     -0.351969
Ti      13.13473     13.10356      6.18123         0.287571      0.069235      1.013975
Ti       1.98311      1.98050     10.36971        -0.086404     -0.894723     -1.003054
Ti       1.88713     13.14411     10.32561        -0.264153     -0.202129      0.440479
Ti      13.24408      1.85632     10.31737        -0.726625      0.621815     -0.750166
Ti      13.11440     13.09888     10.29428         0.536631     -1.048972     -0.259195
Ti       1.87529      5.65013      2.05145        -0.360715     -0.812783      1.050983
Ti       1.89122      5.53551     14.28226        -0.617740      1.242321      1.161789
Ti      13.12045      5.66223      2.19217        -0.788041     -0.988638     -0.624367
Ti      13.13785      5.58749     14.25597         1.324771      0.548973      1.300685
Ti       1.95988      5.61613      6.14471        -0.683268     -0.575984      0.127403
Ti      13.16121      5.59159      6.20354        -0.452814      0.655265      0.218668
Ti       1.88426      5.59436     10.31212         0.138873      0.403936     -1.672756
Ti      13.20576      5.64613     10.26996        -0.484907     -0.585527     -0.322040
Ti       1.85753      9.40566      2.08813        -0.381138      0.163645      0.187683
Ti       1.86173      9.37152     14.44442         0.775247     -0.522695     -0.742311
Ti      13.15447      9.47199      2.14367        -1.581467     -1.258980     -1.188329
Ti      13.11702      9.31609     14.36474         0.951952     -0.061235      0.899782
Ti       1.77181      9.39245      6.09300         0.721065     -0.694337      1.672748
Ti      13.06093      9.36830      6.12920         0.412710     -1.168545      2.071390
Ti       1.79484      9.38476     10.31801         0.602104     -0.427847     -0.016821
Ti      13.03512      9.30610     10.27521         1.394784      0.809289     -0.893825
Ti       5.64385      1.86602      2.02703        -0.613694      0.711352      1.740703
Ti       5.63917      1.85089     14.36587         0.900420      0.378436      0.297216
Ti       5.61987     13.18620      2.04432        -1.029920     -0.439187      0.228233
Ti       5.59943     13.15608     14.34912         0.684682     -0.165769      0.663381
Ti       5.70415      1.93192      6.22120         0.374075     -1.565608     -0.795681
Ti       5.55304     13.12165      6.22136         0.042473      0.661632     -0.526992
Ti       5.74319      1.83879     10.23809        -0.659341      1.961029      0.445018
Ti       5.57696     13.14798     10.36552        -0.099395     -2.263781      1.015518
Ti       5.55316      5.59192      2.12064         0.050470      0.490006      0.135028
Ti       5.63869      5.71288     14.38168         0.293535     -1.742911     -0.019620
Ti       5.60191      5.64963      6.13286         0.655425     -0.189923      0.854284
Ti       5.65233      5.63525     10.26969        -0.589923     -0.696976     -0.011182
Ti       5.58391      9.30626      2.09826         0.564932      0.230445     -1.105473
Ti       5.62527      9.36711     14.34052         0.033999      1.289970      2.599732
Ti       5.50344      9.40909      6.18907        -0.364634     -0.936121      1.166397
Ti       5.56550      9.38792     10.34220        -0.278450      0.125763     -0.902609
Ti       9.37960      1.86739      2.11386         0.592288     -0.024661      0.176723
Ti       9.40996      1.74233     14.29420        -0.612343      1.588970      1.385205
Ti       9.29460     13.15993      2.09388         0.380225     -0.099675     -0.695958
Ti       9.40489     13.11115     14.29282        -1.250587     -0.545037      1.977716
Ti       9.48679      1.76185      6.22594        -1.346952      1.374908     -0.339437
Ti       9.37263     13.08535      6.23204        -0.879153      0.129589     -0.004782
Ti       9.52690      1.86020     10.21172        -0.348891      0.284277      0.505832
Ti       9.30088     13.08487     10.37633         1.047069      0.320415     -0.993024
Ti       9.28159      5.50883      2.11536         0.967518      1.343643     -0.247846
Ti       9.36931      5.49610     14.36294         0.222920     -0.053521      0.097904
Ti       9.39095      5.54021      6.20317        -1.615961      1.396284      0.072073
Ti       9.40594      5.63169     10.19562         0.399901     -0.288338      1.078064
Ti       9.36360      9.38121      2.06923         0.228106     -0.972126      1.233513
Ti       9.40348      9.26386     14.45510        -0.906328      0.887057      0.343332
Ti       9.31792      9.41071      6.13309        -0.110638     -1.431447     -0.741928
Ti       9.34971      9.38772     10.43823        -0.423433     -1.029592      0.242863
O       1.92535      1.84332      0.32255         0.391853     -0.315549     -1.061223
O       1.87697      1.95351     12.46429         0.494194     -0.166608      1.047623
O       1.69452     13.20801      0.24258         0.796820     -0.009196      0.139138
O       1.84813     13.13475     12.50659         0.076948     -0.222346     -0.767133
O      13.06125      1.90412      0.18926         0.087253     -0.265026     -0.807461
O      13.12267      1.88165     12.47406         0.330382     -0.274815      0.979623
O      13.18542     13.18611      0.31440        -0.149066     -0.157920     -0.715377
O      13.14633     13.13423     12.53656        -0.294865     -0.382420      0.324141
O       1.72604      1.89410      4.31017         0.401602     -0.570121      0.865053
O       1.72755     13.14907      4.46632         0.367105      0.029468      0.168438
O      13.02849      1.92199      4.40913         0.508210     -0.523812      0.008931
O      13.10810     13.10365      4.35799        -0.064283     -0.317303     -0.043811
O       1.89774      1.87075      8.51857         0.005019      0.125956     -0.697646
O       1.89512     13.12820      8.53120         0.275001      0.118526     -0.363982
O      13.16144      1.83165      8.46950         0.080945     -0.085998      0.128006
O      13.04320     13.11050      8.46828         0.223103     -0.366506      0.013329
O       1.81031      5.64691      0.26797         0.231324     -0.029402     -0.878384
O       1.94586      5.58349     12.50636        -0.230013      0.031979     -0.711823
O      13.09692      5.60183      0.34633        -0.028985      0.168159     -0.597289
O      13.33082      5.59227     12.49308        -0.694602      0.175719     -0.456934
O       1.88184      5.55601      4.26031        -0.156389      0.695777      0.776040
O      13.13914      5.63572      4.34213         0.056462      0.064197      0.431994
O       1.95924      5.50023      8.43228        -0.469801      0.159663      0.193385
O      13.24414      5.52684      8.44422        -0.640609      0.459224     -0.242792
O       1.93780      9.47089      0.27696        -0.505918     -0.181878     -0.861989
O       2.02533      9.42387     12.61008        -0.715179      0.035938     -0.118087
O      13.13130      9.37902      0.24558         0.176082      0.011943      1.026922
O      13.07037      9.35204     12.58034         0.158159      0.411845     -0.657828
O       1.84543      9.39688      4.31135         0.125944     -0.255023     -0.837059
O      13.18305      9.37651      4.37548        -0.108453     -0.097205     -1.853856
O       1.85033      9.32551      8.52347        -0.107655      0.083277     -0.458491
O      13.05902      9.28470      8.39770         0.303755      0.457378      1.600611
O       5.62527      1.99821      0.21804        -0.196443     -0.682460     -0.303939
O       5.51376      1.92920     12.54586         0.432737     -0.659930     -0.522028
O       5.66065     13.19151      0.25430        -0.257928     -0.072999     -0.722346
O       5.56888     13.15858     12.53590         0.511027      0.274388      0.028425
O       5.74072      1.82901      4.37715        -0.066141      0.094774      0.129090
O       5.62778     13.02800      4.35848        -0.126733      0.669825      0.382253
O       5.80308      1.81174      8.44211        -0.602782      0.176796     -0.061804
O       5.72859     13.17806      8.53394        -0.666254     -0.654871     -0.440235
O       5.71058      5.70368      0.26305        -0.558071     -0.291364     -0.537590
O       5.73480      5.56893     12.52551        -0.347724      0.564729      0.510115
O       5.67457      5.67078      4.33781        -0.263749     -0.094964     -0.532059
O       5.60190      5.56185      8.48661         0.100578     -0.017408     -0.101585
O       5.60059      9.24381      0.24399        -0.007524      0.436257      0.341020
O       5.54721      9.47932     12.60038         0.095056     -0.473741     -1.851721
O       5.44664      9.35676      4.38505         0.411235      0.057414     -0.982134
O       5.52848      9.35143      8.44860         0.357759      0.677387      0.889325
O       9.36077      1.89355      0.27723         0.066830      0.037415     -0.019168
O       9.48286      1.93865     12.54428        -0.209514     -0.582559     -1.524277
O       9.21094     13.21527      0.17766         0.439292     -0.640421      1.441385
O       9.26462     13.19699     12.52852         0.493695     -0.136020     -1.761764
O       9.41005      1.91218      4.35888         0.060427     -0.607427      0.579586
O       9.37880     12.98898      4.38968        -0.157577      0.262192     -0.552580
O       9.51920      1.83402      8.44520        -0.351939      0.093176     -0.678187
O       9.35463     13.01671      8.46440        -0.150984      0.235694      1.107216
O       9.43212      5.58050      0.18236        -0.194653     -0.561232      0.763099
O       9.31939      5.39970     12.51168        -0.109847      0.944357      0.460352
O       9.23287      5.70109      4.38038         0.038290      0.074283     -0.310391
O       9.39288      5.69361      8.39222        -0.120613     -0.308703      0.517141
O       9.31046      9.28099      0.27176         0.533061      0.354311     -1.329024
O       9.33769      9.35883     12.63586         0.369910     -0.035138     -0.351030
O       9.21329      9.30697      4.29147         0.903944      0.325164      0.438314
O       9.40479      9.30812      8.67478         0.025699      0.474653     -1.314181
O       3.75342      1.99043      2.59614         0.181197     -0.827961     -1.540056
O       3.79996      1.65063     14.62723        -1.097191     -0.523094      0.375113
O       3.73775     13.04444      2.42096        -0.540870      0.165577     -0.638050
O       3.72937     13.54199     14.58692         0.124054     -0.532810      0.122366
O      14.95537      1.54127      2.20219         0.256160      0.044324      0.223952
O       0.05555      2.07071     14.68295        -0.661951      0.053997     -0.185694
O      14.96939     13.35694      2.41882         0.290602     -0.225615     -0.342116
O      14.95300     12.90787     14.49362         1.067698      0.079546      0.563386
O       3.75010      2.08109      6.38532         1.313153     -0.555757     -0.011011
O       3.70039     13.08134      6.51482         1.017492     -0.471399      0.213871
O       0.00867      1.52160      6.41171         0.461338      0.594122      0.325284
O       0.01792     13.31066      6.65520        -1.276308     -0.289417     -0.696168
O       3.78571      2.36201     10.33137         1.090571     -1.081602      0.699074
O       3.74715     12.90553     10.72177         0.177596      0.050002     -0.893577
O       0.09179      1.59658     10.47915        -1.694205      0.125057      0.371933
O       0.06385     13.39925     10.63281        -1.599929     -0.158642     -0.591756
O       3.69909      5.36840      2.22505        -0.118349      0.193061      0.237209
O       3.78922      5.88158     14.58461        -0.146098      0.010823      0.192024
O      15.00814      5.62599      2.26503        -0.230292      1.176263      0.535276
O       0.06467      5.31490     14.63360        -0.771950      0.367452     -0.032686
O       3.78310      5.51138      6.39546        -0.321250     -0.490214      0.021252
O      14.99857      5.73259      6.43072         0.328404     -0.351106     -0.415362
O       3.70926      5.31972     10.43429         1.517884      0.218716      0.738163
O       0.00615      5.89634     10.48491         0.253318      0.116017      0.293308
O       3.73377      9.68016      2.20701        -0.269176     -0.470217      0.467330
O       3.74468      9.14321     14.68269         0.332828      0.266573     -0.017648
O       0.02086      9.23068      2.33437        -0.897139      0.051069     -0.016592
O      15.00951      9.55778     14.63838         0.170846      0.558420      0.093668
O       3.63462      9.35223      6.56349         0.588228      0.280120     -0.476295
O      14.99660      9.19236      6.48701        -0.288688      0.006660     -0.378880
O       3.66866      9.73654     10.49472         1.257796     -0.155017      0.317972
O      15.00136      9.14523     10.58849        -1.120920     -0.010140      0.262979
O       7.46267      1.76505      2.33456         0.507962     -0.358272      0.061541
O       7.52410      2.07354     14.52343         0.088919      0.510453      0.316686
O       7.39230     13.33673      2.31904         2.516202     -0.427902      0.522252
O       7.55544     12.81761     14.49247        -1.519070      0.101667      0.462573
O       7.55244      1.77461      6.41611         1.218662     -0.392818      0.151393
O       7.48536     12.95979      6.45538         0.018397      0.777784      0.070529
O       7.55252      1.55017     10.52964         0.287960      0.394664     -0.049152
O       7.46112     13.51490     10.59655         0.444095     -0.387601     -0.633674
O       7.41854      5.75398      2.33200         0.482456      0.396426     -0.092634
O       7.50431      5.40435     14.63253        -0.058845     -0.245307     -0.083198
O       7.46938      5.75942      6.58931         0.522893     -0.482492     -0.449866
O       7.52940      5.87999     10.42168        -0.298425      0.239310      0.204975
O       7.45193      9.09919      2.22820        -0.150115      0.382420      0.499885
O       7.53328      9.64298     14.60349        -0.668632     -0.377896      0.157786
O       7.47223      9.36438      6.34730        -1.020048      0.187341      0.601390
O       7.44238      9.15034     10.48743         0.080335     -0.467769      0.645857
O      11.26357      2.06924      2.39356        -0.349112     -0.040929     -0.447802
O      11.22556      1.65152     14.65094         1.113047     -0.050508     -0.122983
O      11.20241     13.05072      2.22540        -0.313589     -0.756673      0.451658
O      11.21228     13.37701     14.64711         0.787039     -0.486346      0.064157
O      11.31846      1.79683      6.54847        -0.447123      1.256813     -0.044500
O      11.27550     12.85656      6.39232         0.255475      0.033185      0.125602
O      11.34040      2.14751     10.58586        -0.096165     -0.296344     -0.462774
O      11.23622     12.85243     10.71281        -0.410504     -0.066279     -0.643388
O      11.15204      5.51347      2.50631         0.686971     -0.679558     -0.374978
O      11.33549      5.81993     14.48738        -1.186096      0.299908      0.287369
O      11.15247      5.60948      6.51815         2.811012      0.264302     -0.241901
O      11.24348      5.37625     10.53731         0.770704      0.334460     -0.132215
O      11.23005      9.48628      2.37386         0.419990      0.051215      0.026102
O      11.33624      9.06025     14.64654        -1.828018      0.259924      0.034838
O      11.28084      9.44949      6.54988        -1.399204     -0.057098     -0.699740
O      11.25155      9.68310     10.66687        -0.423614     -0.244076     -0.241148
O       1.64986      3.66137      2.36322         0.217712      0.720852     -0.166010
O       2.18209      3.77802     14.53355         0.327780     -1.742099      0.586543
O       2.02319     14.99792      2.57921        -0.079366     -0.836672     -0.866012
O       1.62582      0.01293     14.49703         0.074076     -0.018632      0.404665
O      13.32737      3.72067      2.36922        -0.522786     -0.602630     -0.033013
O      12.92553      3.74447     14.56621        -0.040730     -0.363638      0.300401
O      12.86374     15.00782      2.42657         0.211954      0.471182     -0.144550
O      13.23516     14.99217     14.61962         0.408490      0.412620      0.066327
O       1.78633      3.68711      6.28508        -0.712916      0.285028      0.576241
O       2.14589     14.97978      6.61256        -0.623305      0.439363     -0.366427
O      13.23616      3.72993      6.40807        -0.325006     -0.358365      0.151357
O      12.84911     14.95171      6.31995         0.689122     -1.152599      0.206102
O       1.55471      3.78180     10.51640        -0.396375     -0.369649      0.241211
O       2.16976      0.06914     10.60189         0.191647     -0.731710     -0.388159
O      13.42754      3.79706     10.46108        -0.015128     -1.631059      0.284264
O      12.85426     14.92118     10.42066         0.279369      1.461982      0.662129
O       1.99333      7.55227      2.35686         0.259350     -0.658810     -0.321307
O       1.63661      7.50357     14.50828         0.146433     -0.180905      0.754200
O      12.92012      7.49015      2.37440         0.685873      0.786641      0.214458
O      13.48278      7.48097     14.55019        -0.243674     -0.433220      0.340339
O       1.97682      7.42741      6.49548        -0.253319      0.758152     -0.542027
O      13.04849      7.47862      6.46468        -0.142696     -0.327412     -0.196804
O       2.07462      7.46342     10.64054         0.436227      0.687305      0.090885
O      12.97048      7.51342     10.53923        -0.823098     -0.456550      0.353843
O       1.73730     11.30542      2.44850        -0.380354      0.097045     -0.574093
O       2.11637     11.31524     14.58851         0.042325     -0.419421      0.512928
O      13.30812     11.29043      2.35607        -0.202824     -0.072130      0.038120
O      12.92344     11.27539     14.71914        -0.343400     -1.762486      0.016232
O       1.75296     11.19315      6.44702        -0.052332      0.806296      0.328809
O      13.35026     11.16243      6.40481        -0.118396      1.770764     -0.052931
O       1.52779     11.24817     10.41914         0.285934      0.737559      0.643730
O      13.45367     11.19499     10.44647        -0.324640      0.599612      0.371861
O       5.70715      3.77144      2.32815         0.282771     -0.794460     -0.013322
O       5.36208      3.72873     14.61621         0.508536      0.916111     -0.057121
O       5.55008      0.03158      2.37958        -0.742558     -0.191541     -0.003546
O       6.04591     15.00072     14.63457        -1.030879      0.048451     -0.164893
O       5.85951      3.71301      6.39842        -0.380727      1.666966      0.414379
O       5.52425      0.00707      6.42099         0.178842     -0.960665      0.336877
O       5.89147      3.75158     10.58399         0.434562     -0.363137     -0.443338
O       5.32113      0.00118     10.45749         0.129355      0.773343      0.443283
O       5.27860      7.49218      2.35035         0.057713      0.076086      0.219824
O       5.84058      7.55840     14.57508         0.331362     -1.036128     -0.077225
O       5.48219      7.44833      6.56067         0.350754      1.291978     -0.498039
O       5.26732      7.52698     10.51458         0.465216     -0.363603      0.367770
O       5.78235     11.26306      2.29262        -0.197954     -0.350740     -0.178636
O       5.35039     11.29910     14.68690         0.041538     -0.286684      0.072525
O       5.50246     11.25405      6.39380         0.423818     -0.667333      0.512662
O       5.94399     11.27460     10.59649        -0.386876      0.267090     -0.494905
O       9.11639      3.69110      2.42136         0.188222      0.771001     -0.369099
O       9.68396      3.67655     14.53729        -0.287110      0.502691      0.625332
O       9.51879     14.99473      2.30509        -0.325895      0.118633      0.455179
O       9.16961     14.95617     14.65207        -0.200121      0.359206     -0.174154
O       9.43059      3.75209      6.42107        -0.613890     -1.125921      0.305215
O       9.61910     14.94451      6.39701        -0.706369     -1.095102      0.080542
O       9.19237      3.72574     10.38543        -0.489177      0.193558      0.131722
O       9.72218     14.98988     10.43027        -0.386384     -0.520847      0.428511
O       9.47174      7.40508      2.21351         0.112181      0.958553      0.480080
O       9.16830      7.40355     14.61518         0.262782      0.771220     -0.212697
O       9.37203      7.57762      6.57021         0.482134     -0.128583     -0.447105
O       9.62789      7.48034     10.72510        -0.345691      0.185687     -0.275190
O       9.31129     11.23752      2.20698        -0.855229      0.626431      0.224170
O       9.56740     11.22534     14.64001         0.760422     -0.424922      0.109500
O       9.42046     11.20572      6.49844        -0.336975     -0.241645      0.194209
O       8.98037     11.24006     10.59949         0.621847      0.680478      0.010229
