  # total energy = -7876.16579467 
CRSYTAL
PRIMVEC
    15.6000000000000000    0.0000000000000000    0.0000000000000000
     0.0000000000000000   15.6000000000000000    0.0000000000000000
     0.0000000000000000    0.0000000000000000    17.640000000000000
PRESSURE
-1.88945 -2.10896 8.01996 0.109995 -0.102423 0.065238
PRIMCOORD
320 1
Pb       3.74930      3.74364      4.37027         0.401700      0.803564      0.668363
Pb       3.89603      3.92924     17.57148         0.254657     -0.162838      0.234403
Pb       3.88014     15.50971      4.28533        -0.668388      0.546817      0.861171
Pb       3.77777     15.56740     17.49545         0.393270      0.148927      0.937874
Pb       0.05217      3.89752      4.34793        -0.147315     -0.352715      0.251957
Pb      15.59172      3.98873     17.61961        -0.067499     -0.514363      0.475780
Pb      15.52618     15.51797      4.25587         0.355358      0.225880      0.781659
Pb      15.47020      0.03426     17.52322        -0.006431     -0.190828      0.795247
Pb       3.80096      3.96594      8.76409         0.436839     -0.131528      0.491826
Pb       3.81583      0.05954      8.68637         0.532540     -0.095635      0.549197
Pb      15.55341      3.94585      8.66870         0.262282     -0.322181      1.182076
Pb       0.00683     15.58788      8.73359        -0.333506      0.205072     -0.292720
Pb       3.92924      3.60320     13.21934         0.085695      0.503786      0.013841
Pb       3.79315     15.49202     13.12467         0.508244      0.580979      0.386393
Pb       0.00393      3.76334     13.14658         0.149475      0.460336      0.376892
Pb      15.58751      0.14209     13.09435        -0.301959     -0.646991      0.554910
Pb       3.88807      7.80546      4.38858        -0.533721      0.118646      0.645061
Pb       3.95111      7.82017     17.56948         0.162337      0.063665      0.564075
Pb       0.05951      7.99712      4.41514         0.062986     -0.621008     -0.143303
Pb       0.06513      7.87727     17.48787        -0.345882     -0.574839      0.522953
Pb       3.93337      7.93010      8.83579        -0.653193     -0.618198     -0.474590
Pb      15.54240      7.81494      8.86170         0.022375     -0.156092     -0.448976
Pb       3.92698      7.76506     13.08710        -0.367473      0.493961      0.688314
Pb       0.09632      7.90067     13.16388        -0.401409     -0.385863      0.119187
Pb       3.91191     11.65033      4.35044         0.131391     -0.531451     -0.010504
Pb       3.95003     11.62785     17.53588        -0.637651      0.290680      1.018496
Pb      15.51602     11.53679      4.26769        -0.367154      0.437888      0.212476
Pb      15.54052     11.63537     17.46460         0.339956      0.288480      0.427001
Pb       3.83360     11.57857      8.72576         0.443368      0.242233      0.547189
Pb      15.50087     11.80152      8.77426        -0.163336     -0.163849     -0.224742
Pb       3.82588     11.79849     13.11384        -0.033922     -0.292506      0.439762
Pb      15.49157     11.62629     13.11321         0.314629      0.668718      1.537408
Pb       7.88510      3.65346      4.52227        -0.705116      0.421058     -0.214105
Pb       7.77765      3.82194     17.52963        -0.151629      0.221541      0.542060
Pb       7.68165     15.42852      4.30304         0.143829      0.682084      0.830195
Pb       7.74602     15.59179     17.60737        -0.018890      0.317057      0.141597
Pb       7.64992      3.92553      8.72299        -0.040437     -0.075120      0.084060
Pb       7.83358     15.57709      8.67268        -0.246374      0.364767      0.422878
Pb       8.08755      3.98817     13.05550        -1.880191      0.126720      0.947476
Pb       7.80270      0.03797     13.21038         0.079520      0.162851     -0.076952
Pb       7.97090      7.73797      4.35334        -0.610298     -0.218310      0.453391
Pb       7.82962      7.91366      0.01001        -0.306874     -0.434808      0.093729
Pb       7.71147      7.83897      8.69330         0.935529     -0.281503      0.829052
Pb       7.74262      7.94950     13.07576         0.586360     -0.680712      0.067794
Pb       7.88187     11.72428      4.40059        -0.623141     -0.069475     -0.245698
Pb       7.77272     11.72805      0.01825        -0.031790     -0.473587     -0.053553
Pb       7.85640     11.72639      8.96170        -0.037494     -0.017704     -1.117345
Pb       7.79569     11.80669     13.17906        -0.156487     -0.524592     -0.052680
Pb      11.65897      3.89032      4.43393         0.108875     -0.551305     -0.276687
Pb      11.87642      3.82502     17.60248        -0.554234      0.158576      0.129010
Pb      11.48705     15.37379      4.40548         1.027183      0.692847      0.471075
Pb      11.42786     15.46525     17.60498         1.022950      0.228965      0.202298
Pb      11.51627      3.92646      8.77101         0.650177     -0.351930     -0.210273
Pb      11.84699      0.07826      8.66349        -0.500302     -0.213466      0.576860
Pb      11.81835      3.94025     13.16671        -0.184981     -0.273997      0.781092
Pb      11.68859     15.54374     13.13962        -0.270969      0.081980     -0.011739
Pb      11.79104      7.63310      4.21919        -0.621780      1.243868      1.206351
Pb      11.69765      7.69086     17.47168         0.105319      0.282193      0.542779
Pb      11.55774      7.80025      8.67246         0.187571      0.296555      0.450025
Pb      11.76181      7.69683     13.21615        -0.376713      0.717114     -0.084662
Pb      11.67056     11.65208      4.21331         0.644331     -0.145522      0.226812
Pb      11.84872     11.54008     17.42553        -0.541000      0.424063      0.423683
Pb      11.75405     11.60471      8.56776        -0.147152      0.087441      0.287245
Pb      11.59787     11.61005     12.96355        -0.107810      0.232398      0.615058
Ti       1.86972      1.83711      2.37382        -0.266875      1.043036      1.718342
Ti       1.91490      1.92693     15.72975        -0.239454      0.336806     -0.469593
Ti       1.98031     13.52730      2.41716        -1.705581      0.486711      1.738424
Ti       1.88976     13.62315     15.69152        -0.524952     -0.069867      0.862653
Ti      13.56709      1.88137      2.46402         0.277868      0.311091      1.589755
Ti      13.53999      1.84207     15.58053         0.228185      0.492633      2.995917
Ti      13.67166     13.64693      2.36410        -0.021574     -0.330477      2.181362
Ti      13.59550     13.63977     15.57801        -0.613547      0.264670      1.554786
Ti       1.92271      1.94662      6.82258         0.061149      0.435963      0.793039
Ti       1.97860     13.59130      6.78213        -0.925925      0.846206      1.816276
Ti      13.66645      2.06753      6.79423        -0.385465     -1.608998      3.276549
Ti      13.63113     13.62653      6.77284        -0.246909     -0.135522      1.158081
Ti       1.87560      1.92644     11.18137         0.920683      0.753234     -0.224632
Ti       1.84607     13.70930     11.26705         0.507742     -1.081868      1.683409
Ti      13.58290      1.93449     11.16871        -0.402665     -0.037865      2.806688
Ti      13.65547     13.64591     11.28866        -0.725545      0.154462      0.017622
Ti       1.93146      5.82820      2.48226         0.269442      0.481213      0.761791
Ti       1.98827      5.87178     15.66632        -0.573046     -0.465742      2.016250
Ti      13.68938      5.80991      2.51709        -0.023932     -0.614915     -1.200623
Ti      13.67273      5.81761     15.60223        -0.401701     -0.215302      3.532171
Ti       1.88161      5.85648      6.93520         0.271394      0.547282      0.192433
Ti      13.59180      5.82099      6.80389         0.244044      0.105263      3.256131
Ti       1.90166      5.81288     11.33956         0.407285     -0.251897      1.885370
Ti      13.67751      5.79346     11.25288        -0.086447      1.169560     -0.042849
Ti       1.96209      9.75185      2.30279         0.392918     -0.484320      1.982725
Ti       2.01598      9.74054     15.59486        -0.680891      0.841637      1.858129
Ti      13.63101      9.66437      2.15941        -0.351464      0.349398      2.153260
Ti      13.70383      9.67034     15.46910        -0.517084     -0.054231      2.518317
Ti       1.84837      9.81389      6.91364         0.340989     -1.374041      0.784664
Ti      13.67118      9.60084      6.84019        -0.313220      1.449564     -1.550283
Ti       1.88763      9.80974     11.24404         0.891094      0.281754      1.265890
Ti      13.63671      9.75281     11.19850        -0.981330     -0.930688      0.979843
Ti       5.80062      1.92727      2.46330        -0.065329      0.825960      2.913288
Ti       5.81120      1.88643     15.59638         0.100924      1.015174      2.626318
Ti       5.75264     13.63392      2.37726         0.680302     -1.073184      3.559386
Ti       5.79777     13.63781     15.63539        -0.306783      0.185238      2.365289
Ti       5.79158      1.96997      6.83688         0.103891     -0.460347      2.256584
Ti       5.77247     13.57704      6.92721         0.568287     -0.004086      2.332750
Ti       5.86626      1.90391     11.19671        -0.121919      0.736672      3.133115
Ti       5.89247     13.69256     11.21576        -0.780323     -0.125035      3.257530
Ti       5.85078      5.81973      2.63296        -0.744176     -0.993244      0.857024
Ti       5.82409      5.89804     15.57127         0.811314     -0.666423      3.389503
Ti       5.78335      5.93398      6.80581        -0.293064     -1.479379      2.176356
Ti       5.70809      5.81914     11.29862         1.476715     -1.213844      0.908252
Ti       5.93578      9.66092      2.51363        -1.177025      1.092489      1.678193
Ti       5.83863      9.77752     15.58447         0.215182      0.267258      2.188395
Ti       5.83801      9.69033      6.78252        -0.444260      1.341460      2.248201
Ti       5.77618      9.77873     11.20263         0.177133      0.780338      2.796563
Ti       9.73212      1.84762      2.46626         0.052506      0.628121      2.410812
Ti       9.70229      1.93446     15.58288         0.244210      0.336995      4.693784
Ti       9.70585     13.61081      2.41462         0.157365     -0.344252      1.743243
Ti       9.64429     13.55363     15.63887         0.933782      0.541941      1.048211
Ti       9.72366      1.89446      6.83827         0.498476      0.160745      2.393988
Ti       9.72225     13.66756      6.88554         0.630455     -0.562454      0.346720
Ti       9.74179      2.01143     11.18700         0.432261     -2.174174      0.169457
Ti       9.71565     13.71366     11.19790         0.174846      0.099493      1.331322
Ti       9.67526      5.76743      2.44798         0.283265     -0.511065      1.901106
Ti       9.67952      5.81567     15.69996         0.514762     -0.200343      0.123644
Ti       9.68870      5.80911      6.82539         0.257560      0.128807      1.061225
Ti       9.81391      5.81492     11.19535        -0.943372      2.025985      1.738155
Ti       9.74187      9.67220      2.34626         0.721510      0.388773      2.670765
Ti       9.73000      9.74175     15.54590        -0.075679     -0.124748      3.063934
Ti       9.60444      9.74548      6.71497         1.209921      0.122790      5.050602
Ti       9.70385      9.75954     11.11678         0.439265     -0.523796      2.149443
O       1.79987      1.95043      0.69514         0.484060     -0.010818     -2.047183
O       2.03093      1.93865     13.95703        -0.588347     -0.242389     -0.154618
O       1.98119     13.57699      0.77004        -0.031940      0.002317     -3.047228
O       1.87483     13.60009     14.01356         0.017897      0.590018     -1.839998
O      13.58285      1.90870      0.77063        -0.211963     -0.149978     -1.510680
O      13.57326      1.95590     13.91463         0.382564      0.062003     -2.592566
O      13.63492     13.74754      0.70788        -0.118515     -0.088208     -2.413572
O      13.55348     13.73221     13.90488        -0.008607     -0.146438     -2.438428
O       1.98280      2.15804      5.12564        -0.356186     -0.652667     -0.723691
O       1.88858     13.67183      5.12104         0.379327     -0.224544     -1.919563
O      13.50730      2.04938      5.18240         0.369995      0.090555     -4.008688
O      13.57655     13.47545      5.10925         0.099220      0.340421     -2.155384
O       1.87241      2.00314      9.47549         0.261924     -0.330405     -0.551531
O       1.81072     13.57662      9.61450        -0.087954     -0.093530     -2.661231
O      13.66696      1.88994      9.54274        -0.166536      0.212159     -3.487771
O      13.61488     13.60738      9.58047         0.307040     -0.129442     -0.805320
O       1.81512      5.85796      0.76010         0.430545      0.168787     -0.712637
O       1.93284      5.98429     14.02103        -0.053651     -0.132962     -2.717201
O      13.71634      5.79388      0.76559        -0.215500     -0.079815     -0.125286
O      13.58798      5.68855     13.95560         0.039510      0.072193     -3.019552
O       1.88815      5.72283      5.26625         0.048192      0.350081     -2.008846
O      13.53095      5.95535      5.15914         0.003679     -0.221865     -3.125075
O       1.90388      5.70909      9.69560        -0.195664      0.403879     -2.680360
O      13.61569      5.78666      9.54600         0.169493      0.166325     -0.610006
O       1.96607      9.76411      0.62074         0.016952     -0.272692     -2.135976
O       1.98155      9.78356     13.92640        -0.073474     -0.322039     -2.211723
O      13.62449      9.60776      0.45767         0.108760      0.108203     -1.137146
O      13.67871      9.63475     13.79712        -0.015812      0.103304     -2.141156
O       1.87805      9.79308      5.23522        -0.342505     -0.101076     -2.069031
O      13.96148      9.69408      5.07377        -0.839905     -0.464256      0.456057
O       1.86478      9.94486      9.55194         0.024809     -0.228169     -1.718332
O      13.63969      9.81792      9.49576         0.361081     -0.146892     -1.249102
O       5.95266      1.90414      0.82310        -0.301824      0.108577     -2.641118
O       5.88074      1.87963     13.92791        -0.193627     -0.039235     -2.007508
O       5.73178     13.60221      0.74992         0.100006      0.143873     -3.792094
O       5.72542     13.59227     13.97424         0.278432      0.138016     -2.047232
O       5.87054      2.04497      5.19248        -0.331127     -0.397387     -2.799281
O       5.83174     13.58425      5.28752        -0.041452     -0.034424     -3.606144
O       5.78125      1.95036      9.54584         0.304524     -0.077952     -2.601512
O       5.91070     13.68735      9.57997         0.190290     -0.047064     -3.669174
O       5.73234      5.79948      0.94477         0.124433      0.151263     -1.533792
O       5.78021      5.91854     13.93351         0.132605      0.022010     -2.596326
O       5.72465      5.96303      5.16117         0.164061     -0.033160     -2.177172
O       5.75282      5.63702      9.61622         0.154357      0.652603     -1.502828
O       5.78594      9.70467      0.84388         0.278511     -0.159998     -2.234315
O       5.83448      9.88272     13.91945         0.016969     -0.156311     -2.072517
O       5.72902      9.68872      5.13079         0.373785      0.274301     -2.744575
O       5.69254      9.84939      9.53911         0.374265     -0.250745     -2.174672
O       9.77716      1.87981      0.80502        -0.075059     -0.126014     -2.258012
O       9.63718      1.87916     13.96512        -0.054638      0.069369     -4.124050
O       9.68407     13.65668      0.75511        -0.051754      0.001363     -2.662869
O       9.64189     13.60251     13.94728        -0.059474     -0.087985     -1.558983
O       9.59760      1.82366      5.19376         0.165427      0.045888     -3.288931
O       9.80539     13.63837      5.15135        -0.643572     -0.164560     -1.070684
O       9.82864      1.90966      9.47830        -0.284441      0.475609     -0.691599
O       9.71783     13.75183      9.50818        -0.414988     -0.327398     -1.540052
O       9.66889      5.82486      0.78463         0.089458     -0.190562     -1.884139
O       9.83354      5.86338     13.97871        -0.249986     -0.002242     -0.882364
O       9.73232      5.81321      5.14567         0.112136      0.013538     -1.915066
O       9.87255      5.91731      9.50723        -0.060985     -0.497340     -1.173020
O       9.64772      9.68436      0.69873        -0.113452      0.203135     -2.813656
O       9.66867      9.74237     13.88778        -0.097025      0.063482     -2.023064
O       9.56065      9.74021      5.10545         0.054234      0.052990     -4.639561
O       9.75497      9.79855      9.44218        -0.439971     -0.010630     -2.172261
O       3.78951      1.88419      2.89957         0.532360     -0.113075     -0.359771
O       3.90335      1.88975     16.13893        -0.446776      0.124973     -0.144245
O       3.84156     13.58780      2.90277         0.275170      0.018455     -0.020716
O       3.80652     13.68713     16.03771         0.823546     -0.170705      0.162615
O      15.55967      2.00818      2.87247        -0.053870     -0.487137      0.169463
O       0.00844      1.86032     16.13249        -0.529958      0.558265     -0.820453
O      15.57849     13.66445      2.84940         0.127113     -0.577306     -0.114352
O      15.42147     13.68455     16.05332         1.481873     -0.176730      0.191442
O       3.84832      1.97608      7.33247         0.206309      0.072260     -0.272121
O       3.85652     13.45289      7.34274        -0.427020      0.874655     -0.359209
O       0.03306      1.95276      7.25439        -0.120683      0.071940     -0.104832
O      15.52111     13.78465      7.18114         0.985162     -0.757586      0.488632
O       3.88309      1.90325     11.60973        -0.107480     -0.154465      0.226558
O       3.77770     13.70376     11.63524         0.561093     -0.152077      0.062918
O      15.55362      1.95052     11.51119         0.065470     -0.082841      0.960319
O      15.55132     13.59036     11.68783        -0.676851      0.714848      0.239609
O       3.86706      5.89867      3.02967        -0.596761     -0.263556     -0.495200
O       3.89709      5.89472     16.12863         0.374230      0.059830     -0.144468
O      15.54119      5.86090      2.98385         0.782227      0.100062     -0.100220
O      15.53169      5.77890     16.13514         1.173956      0.774430     -0.598082
O       3.79581      5.99842      7.35361         1.176702     -0.326022      0.151543
O      15.51730      5.81095      7.20544         0.089805      0.354107      0.593268
O       3.89173      5.73724     11.72983        -0.991055      0.575215      0.191293
O      15.56774      5.88220     11.83657         0.431666     -0.202842     -0.387460
O       3.84586      9.85181      2.79214         0.421566     -0.411630      0.403017
O       3.88088      9.80556     16.08935         0.719568     -0.326825     -0.235929
O      15.56573      9.69279      2.62529        -0.346885     -0.296346      0.330453
O       0.00609      9.73068     16.00014        -0.062428     -0.310812     -0.281080
O       3.91516      9.69633      7.19382        -0.884651      0.146094      0.820609
O      15.53359      9.70358      7.25829         0.528063     -0.173779      0.918912
O       3.88128      9.74619     11.66382        -0.084956      0.568736     -0.099144
O      15.59917      9.79037     11.66868        -0.343136     -0.750723     -0.224989
O       7.71350      1.88087      2.90778         0.374499     -0.272306      0.191575
O       7.75223      1.89700     16.17499         0.386310      0.148822     -0.532681
O       7.72302     13.64176      2.82317         0.281040     -0.225590     -0.003640
O       7.73422     13.50641     16.10483        -0.024998      0.615871     -0.093062
O       7.77576      1.91172      7.17957        -0.381452      0.089182      0.818898
O       7.80321     13.67449      7.32893        -0.036921     -0.252019      0.037731
O       7.81361      1.96706     11.64508         0.440956      0.172266     -0.146250
O       7.78038     13.65996     11.77935        -0.043576      0.086964     -0.570876
O       7.79084      5.67429      3.01515         0.123284      0.926204     -0.282324
O       7.79232      5.72214     16.13966        -1.052953      0.590116     -0.516176
O       7.80173      5.88397      7.21392        -0.946750     -0.389872      0.455946
O       7.88046      5.91747     11.62457         0.110237     -0.877734      0.091974
O       7.84211      9.67025      2.90978        -0.353027      0.213969     -0.181866
O       7.71853      9.77591     16.10687         1.063573      0.657008     -0.138417
O       7.70726      9.76052      7.22984         0.798935     -0.063205      0.287740
O       7.76208      9.78697     11.62204        -0.847043      0.254211     -0.246085
O      11.66593      1.76850      3.00241        -0.508737      0.648660     -0.448009
O      11.61393      1.89324     15.97943         0.704247      0.218435      0.242558
O      11.68881     13.66390      2.78344        -0.586339     -0.378242      0.225397
O      11.57065     13.64938     16.05883         1.029202     -0.319729      0.160109
O      11.70579      2.01372      7.17654        -0.315641      0.024043      0.619167
O      11.68938     13.61659      7.16271         0.218774      0.149173      0.603209
O      11.67947      1.83975     11.63605        -0.119187      0.721971      0.154690
O      11.57762     13.58944     11.62705         1.057121      0.151258      0.399079
O      11.70665      5.77381      2.97694        -0.717293     -0.499326     -0.613460
O      11.66712      5.83761     16.10349         0.463272     -0.164161      0.036562
O      11.66181      5.92435      7.26782        -0.257141     -0.775139     -0.035273
O      11.75230      5.94415     11.79945        -0.674549     -0.903343     -0.719947
O      11.70495      9.72507      2.69473        -0.307417     -0.029875     -0.018640
O      11.71875      9.64611     15.92022        -0.514185      0.224440     -0.048588
O      11.67132      9.76170      7.04815        -0.094076     -0.564034      0.341120
O      11.66167      9.73951     11.48131         0.067528      0.250036      0.606465
O       1.93674      3.92018      2.84627        -0.201425      0.161503     -0.059869
O       1.96542      3.88546     15.99886         0.104333      0.455602      0.398008
O       1.82176      0.01218      2.73876         0.583843     -1.212034      0.479449
O       1.90603      0.01511     16.11882        -0.095528     -0.629602     -0.049426
O      13.61461      3.82936      2.84018        -0.422496      0.393851      0.473378
O      13.70008      3.84096     16.17590        -0.582316     -0.175116     -0.619049
O      13.66151     15.53915      2.95048        -0.255718      0.229671     -0.406530
O      13.58551     15.58152     15.96022        -0.131895      0.168512      0.238346
O       1.97090      3.92598      7.33301        -0.389571     -0.160719     -0.036561
O       2.02028      0.00486      7.23701        -0.334235     -0.469114     -0.134994
O      13.65821      3.88129      7.37019        -0.630961      1.089863     -0.654659
O      13.65011      0.05893      7.26361         0.144002     -0.394094     -0.288129
O       1.90415      3.84761     11.69589        -0.063382      0.053541      0.424752
O       1.91516      0.01323     11.62527        -0.608978      0.274692      0.223427
O      13.58530      3.90670     11.62179         0.266732     -0.482164      0.265924
O      13.58002      0.01177     11.54575         0.417287     -0.784017      0.806169
O       1.99203      7.84925      2.96023        -0.517715     -0.243360     -0.615045
O       2.01831      7.87324     16.03126        -0.383224     -1.072704      0.323283
O      13.50425      7.73398      2.77660         0.922158      0.832038     -0.299422
O      13.61904      7.74046     15.95320         0.407984      0.234944     -0.175061
O       1.85286      7.83228      7.37453        -0.071958      0.122454      0.440964
O      13.61193      7.74174      7.34542         0.312628      0.100634     -0.037828
O       2.06683      7.87780     11.63611        -1.004993     -0.854995     -0.018605
O      13.59574      7.80317     11.62998         0.668116      0.139457      0.192627
O       1.84626     11.61792      2.80248         0.292172      0.587737      0.220898
O       1.84892     11.71120     15.99668         0.215737     -0.096631      0.549252
O      13.59009     11.62042      2.63079         0.250686     -0.015754      0.224068
O      13.71320     11.63168     15.98168        -0.759663      0.026219     -0.337036
O       1.82036     11.70464      7.19784         0.084904      0.242151      0.562979
O      13.68294     11.59579      7.07918        -0.024885      0.836353      1.097192
O       1.77612     11.71647     11.84989         1.200650     -0.109686     -0.968822
O      13.61964     11.65373     11.69118        -0.109507      0.467206     -0.223969
O       5.72383      3.85743      3.06264         0.502333     -0.271398     -0.747451
O       5.74245      3.84479     16.05051         0.246934      0.706514     -0.018414
O       5.72070     15.53455      2.93478         0.406776      0.101088     -0.429872
O       5.86325      0.04832     16.17402        -0.130403     -1.625810     -0.469007
O       5.82048      3.92140      7.27263        -0.033208      0.392563      0.042397
O       5.72260     15.57242      7.18642         0.064952      0.132613      0.564218
O       5.85005      3.88367     11.72258         0.181383     -0.300962      0.142645
O       5.90012     15.59407     11.79571        -0.391461      0.019876     -0.575594
O       5.79323      7.80685      3.08498         0.748439     -0.154039     -0.846401
O       5.96983      7.90847     16.10090        -1.052635     -1.397731     -0.368693
O       5.88431      7.77557      7.34525        -0.620620      0.444045     -0.124814
O       5.79869      7.80695     11.65259         0.019342      0.144401     -0.352906
O       5.86800     11.68815      2.84135        -0.004436     -0.004839      0.511434
O       5.79525     11.73752     16.20642         0.243828     -0.214638     -0.639254
O       5.83500     11.63758      7.25619         0.093726      0.079949      0.503774
O       5.71392     11.80725     11.65883         0.704446     -0.751578     -0.132766
O       9.66625      3.78251      2.94461         0.692768      0.143730     -0.125756
O       9.77600      3.91451     16.06544        -0.388430     -0.921415      0.039185
O       9.66690     15.52348      2.89691        -0.083752     -0.204076     -0.054432
O       9.72535     15.55819     16.10643        -0.983502     -0.049593     -0.270181
O       9.71348      3.85119      7.22689        -0.073579      0.745155      0.254804
O       9.85252     15.59317      7.25436        -0.564217     -0.294291      0.173380
O       9.91721      3.87259     11.69951        -0.210502      0.788001     -0.802981
O       9.73157      0.03674     11.63295        -0.333498     -0.255538      0.370550
O       9.73543      7.75490      2.76520        -0.076183     -0.433039      0.311810
O       9.60459      7.77157     16.19555         0.599404      0.550747     -0.752070
O       9.61258      7.77200      7.24798         0.313982      0.650640     -0.152162
O       9.62818      7.85906     11.59924         0.849394     -0.543104      0.120323
O       9.70524     11.65307      2.85105        -0.118567      0.294559     -0.071271
O       9.84009     11.67927     16.12637        -0.833865     -0.941906     -0.368168
O       9.76611     11.69979      7.23462        -0.815768     -0.123436      0.121539
O       9.62127     11.69430     11.55944         0.159434      0.234231      0.269851
