  # total energy = -7880.87026780 
CRSYTAL
PRIMVEC
    15.3600000000000000    0.0000000000000000    0.0000000000000000
     0.0000000000000000   15.3600000000000000    0.0000000000000000
     0.0000000000000000    0.0000000000000000    17.440000000000000
PRESSURE
1.5373 1.00581 -1.00344 -0.381689 -0.356341 -0.047056
PRIMCOORD
320 1
Pb       3.86847      3.82807      4.38630         0.215880     -0.249406     -0.175671
Pb       3.91830      3.82726     17.40903        -0.798855      0.033678      0.579420
Pb       3.79979      0.02446      4.29860        -0.173857     -0.065975      0.550289
Pb       3.67383     15.34378     17.36099         0.646908     -0.114741      0.585854
Pb       0.04460      3.72134      4.35072         0.190211      0.374700      0.299703
Pb       0.08512      3.97994     17.40904        -0.258355     -0.776198      0.202241
Pb       0.08201      0.01466      4.30872        -0.296272     -0.526282      0.182142
Pb      15.24414     15.31482     17.37589        -0.491832      0.566004      0.671857
Pb       3.74852      3.73206      8.73741         0.390178      0.220497      0.238835
Pb       3.88249      0.01628      8.56336        -0.094617     -0.507610      0.565053
Pb      15.17535      3.94820      8.62586        -0.005712     -0.845237      1.011905
Pb      15.19295     15.35447      8.68809         0.600437      0.049799      0.259088
Pb       3.72386      3.68836     13.10668         0.563262      0.010863     -0.668061
Pb       3.71268     15.34255     12.94777         0.434718     -0.404476      0.118864
Pb       0.04600      3.79079     13.05919        -0.773939     -0.100065     -0.075790
Pb      15.35130     15.30663     13.06874        -0.076711     -0.229426     -0.330997
Pb       3.86713      7.65460      4.33135        -0.468914     -0.238102     -0.007792
Pb       3.80891      7.56771     17.36699        -0.299965      0.123365      0.596176
Pb       0.10997      7.83777      4.35522         0.146846     -0.423688      0.041753
Pb      15.15172      7.68642     17.40318         1.036914      0.047038     -0.246352
Pb       3.85076      7.72657      8.63964        -0.106187     -0.586367      0.783786
Pb       0.05480      7.59306      8.62223        -0.302744      0.270305      0.505240
Pb       3.80925      7.55788     12.97451         0.223488      0.146584      0.038198
Pb      15.35894      7.62684     13.11832         0.150342      0.076353     -0.373863
Pb       3.81185     11.59894      4.21865        -0.443558      0.047909      0.286240
Pb       3.98490     11.61080     17.39623        -0.049159     -0.111260      0.251597
Pb       0.03510     11.55932      4.37998        -0.472512      0.238094     -0.483118
Pb      15.28888     11.58803     17.27491        -0.413742     -0.223004      0.618385
Pb       3.88539     11.54016      8.60463        -0.830177     -0.143114      0.449167
Pb      15.25980     11.42706      8.69107         0.346586     -0.102400     -0.097448
Pb       3.90629     11.46536     13.15707        -0.485541      0.171139     -0.322470
Pb       0.15936     11.59179     13.05702        -0.523147     -0.301785      0.321058
Pb       7.73089      3.74667      4.36973        -0.342571     -0.265347     -0.818337
Pb       7.67494      3.88961     17.39788         0.018649     -0.084778      0.674463
Pb       7.71603      0.02766      4.37433         0.211732      0.211759      0.239680
Pb       7.57756      0.09111     17.29780         0.337440     -0.671792      0.627838
Pb       7.62930      3.81301      8.77966         0.307265     -0.220675     -0.372475
Pb       7.65773     15.20879      8.72057        -0.291046      0.893265     -0.353893
Pb       7.86351      3.91322     13.08127        -0.566111     -1.196991      0.549213
Pb       7.66001      0.13314     13.03520        -0.462604      0.210818     -0.014732
Pb       7.72826      7.51639      4.31758        -0.467366      0.621086     -0.130995
Pb       7.60715      7.79070     17.38054         0.535905     -0.432889      0.781994
Pb       7.68580      7.69358      8.64466         0.121711     -0.991844      0.504806
Pb       7.57179      7.71680     13.01904         0.304045     -0.263907      0.453420
Pb       7.64472     11.54495      4.30635         0.698415     -0.128605      0.484262
Pb       7.75860     11.50894     17.42470        -0.390440      0.532293     -0.071541
Pb       7.48844     11.58416      8.53449         0.791244     -0.231141      0.492261
Pb       7.75442     11.45687     13.01363         0.025752      0.356354      0.779415
Pb      11.43720      3.80243      4.29996        -0.216498     -0.761824      0.130756
Pb      11.75119      3.89131      0.03595        -0.317926     -0.226662      0.255160
Pb      11.51456     15.23565      4.31899        -0.355935      0.720666      0.202951
Pb      11.33383     15.27492      0.01496         0.663857     -0.106661      0.254621
Pb      11.36923      3.87731      8.69636         0.449391      0.035540     -0.147437
Pb      11.53455     15.34371      8.72394        -0.237802      0.122222      0.018408
Pb      11.61738      3.71619     13.08181        -0.265152      0.401470     -0.142822
Pb      11.58541     15.35041     12.99679        -0.223225     -0.188972     -0.481913
Pb      11.50064      7.63157      4.31907        -0.398750      0.355497      0.380279
Pb      11.55974      7.65862     17.38279        -0.507096     -0.110385      0.014812
Pb      11.50155      7.70440      8.71393        -0.132530     -0.661222      0.081032
Pb      11.37359      7.65789     13.09009         0.166154     -0.238365     -0.699516
Pb      11.60301     11.43746      4.26523        -0.864736      0.203973      0.973725
Pb      11.41255     11.39323     17.35039         0.176867      1.036812      0.634363
Pb      11.64888     11.47362      8.55636        -1.004396     -0.181655      1.216432
Pb      11.55022     11.45334     13.01392        -0.231179      0.325190     -0.146478
Ti       1.91006      1.90207      2.33112        -0.792773     -0.025098     -0.717060
Ti       1.84452      1.83924     15.42155        -0.478556      0.816653     -0.039716
Ti       1.83989     13.43512      2.19804         0.020123      0.115937      0.696967
Ti       1.89376     13.40476     15.49637        -0.261009     -0.063621     -1.405199
Ti      13.44053      1.96308      2.43946        -0.690585     -0.980433     -2.173009
Ti      13.41323      1.91154     15.38510         0.493183      0.716783      0.535898
Ti      13.35338     13.49250      2.23217         0.672953     -1.291801     -0.245393
Ti      13.32646     13.48628     15.34860        -0.455863      0.051543      1.024251
Ti       1.86772      1.90178      6.81355        -0.522047     -0.515622     -0.548576
Ti       1.79077     13.40424      6.68449        -0.081149      0.093367      0.237090
Ti      13.34467      1.90554      6.67094        -0.013114      0.036613      0.924957
Ti      13.37335     13.42231      6.68356         0.949924     -0.388824      0.865496
Ti       1.86083      1.78301     11.01020        -0.628796      0.351260      0.359525
Ti       1.89391     13.30320     10.89315        -0.501580     -0.195971      0.729920
Ti      13.43221      1.84315     11.01230         0.278898      0.271689     -0.127302
Ti      13.40305     13.29092     10.96351        -0.133594      0.850199      0.205542
Ti       1.89435      5.71899      2.30497         0.264349      0.151275     -1.372404
Ti       1.94521      5.76714     15.31561        -0.442709     -0.655554      1.061434
Ti      13.49824      5.81423      2.51642        -0.020568     -1.075905     -0.431871
Ti      13.47414      5.81388     15.32733        -0.435663     -2.117881     -1.139419
Ti       1.96309      5.72225      6.82430        -0.541461     -0.160918     -0.057221
Ti      13.41666      5.69781      6.54160        -1.112014     -0.512858      0.824112
Ti       1.85171      5.67509     11.04028         0.682034      0.019658     -0.526590
Ti      13.36886      5.72276     11.03314         0.157497     -1.248256     -0.834197
Ti       1.88186      9.63083      2.15453        -0.584909     -0.318894     -0.012074
Ti       1.93127      9.61345     15.47863        -0.754944     -0.599018      0.398104
Ti      13.38581      9.59844      2.29888         0.079897      1.190643      1.133404
Ti      13.39205      9.68688     15.33113         0.170348     -0.271254     -0.221587
Ti       1.94211      9.57430      6.64262        -0.793843      0.443870      1.306408
Ti      13.43482      9.40807      6.62120         0.125954      1.839994      0.749365
Ti       1.97087      9.46133     11.02439        -0.607832      0.854691     -0.018044
Ti      13.48992      9.46906     11.14848        -0.068518      0.187901     -1.085144
Ti       5.69885      1.84560      2.29342         0.496528      1.310363      0.953871
Ti       5.69481      1.92615     15.43696         0.295305      0.251172     -1.417683
Ti       5.79236     13.52440      2.43802        -0.019800     -0.937317     -1.520839
Ti       5.77496     13.47488     15.36064        -0.224612     -0.253499      0.597047
Ti       5.74270      1.90189      6.68359         0.538194     -0.430799     -0.644120
Ti       5.60136     13.35877      6.56584         0.875628      1.541633     -0.181069
Ti       5.66313      1.93913     10.90795         1.107621     -0.408200      0.317445
Ti       5.70942     13.36595     11.06326        -0.588493      1.545704     -0.860695
Ti       5.71020      5.74123      2.34269         0.465808     -1.310082      0.191085
Ti       5.74717      5.74215     15.44620         0.005168      0.411791     -0.386981
Ti       5.70029      5.67220      6.71645         0.923487     -1.203130     -1.087860
Ti       5.79441      5.68650     11.05084        -1.204324      0.079798     -0.761946
Ti       5.66213      9.57122      2.34448         1.140453      0.195558     -0.765671
Ti       5.67478      9.57112     15.45931         1.515283      0.490047     -0.213151
Ti       5.67259      9.47363      6.66731         1.002884     -0.372383     -0.226526
Ti       5.81152      9.61372     11.07284        -1.235862     -0.275842     -0.931394
Ti       9.56559      1.85614      2.20112        -0.149620      0.397431      1.949820
Ti       9.66882      1.96778     15.49805        -0.777597     -0.097249     -1.135852
Ti       9.58843     13.39378      2.42539         0.064610      0.143613      0.289348
Ti       9.58831     13.47910     15.25991        -0.560591     -0.430889      1.568441
Ti       9.56333      1.85170      6.70579        -0.062334      0.709838     -0.413276
Ti       9.53299     13.45852      6.74204         0.061070     -0.395136     -1.617443
Ti       9.57103      1.89441     10.99165        -0.846474     -0.196052     -1.320081
Ti       9.45483     13.50016     11.03445         1.762931     -0.509606     -0.998684
Ti       9.61656      5.76002      2.31664        -1.058976     -1.479464     -1.319345
Ti       9.59703      5.71492     15.52769         0.309036      0.236710      0.218712
Ti       9.49468      5.69838      6.61147         0.581364     -0.377697      2.471524
Ti       9.57053      5.66244     11.02238         0.940317      0.471794     -2.343650
Ti       9.53541      9.51740      2.31062         0.072503      1.309521      0.111397
Ti       9.54605      9.58880     15.41986         0.037491      0.542608     -0.497885
Ti       9.52221      9.61216      6.81473         0.656586     -0.275141     -1.467370
Ti       9.61507      9.63511     11.03981         0.832616     -0.224236     -1.819683
O       1.77755      2.00919      0.59709         0.457501     -0.407949     -0.568891
O       1.86612      1.67674     13.61689         0.381154      0.653648      0.808947
O       1.84210     13.37452      0.41495        -0.048836     -0.000697      0.280176
O       1.74694     13.47190     13.67733         0.628623     -0.535047      1.307436
O      13.46685      2.03154      0.60809        -0.286850      0.007094      1.668947
O      13.53534      1.88361     13.60791        -0.666743     -0.211002      0.210776
O      13.40667     13.50976      0.44067        -0.310507     -0.283539      0.914734
O      13.24579     13.49808     13.58281         0.087332     -0.004758      0.451178
O       1.92515      1.86269      5.02650        -0.372796     -0.124869      0.412081
O       1.85497     13.52884      4.87981        -0.230231     -0.351209      0.772096
O      13.27084      1.83622      4.93385         0.395409      0.049759     -0.943129
O      13.43026     13.43148      4.96640         0.130551     -0.055398     -0.912918
O       1.81289      1.87119      9.29153         0.275141      0.044358     -0.879023
O       1.79148     13.21162      9.15069         0.519447      0.293489      0.824015
O      13.43341      1.87852      9.25176        -0.021255     -0.249627      0.598218
O      13.43412     13.31174      9.16077         0.080989      0.153023      1.482919
O       1.89049      5.71096      0.44046        -0.005295      0.065298      2.269481
O       1.85374      5.77668     13.54398         0.452674      0.020049      0.346601
O      13.52058      5.62937      0.69271        -0.261001      0.719127      0.866331
O      13.41335      5.67815     13.53565        -0.053409      0.402529      1.137539
O       1.83824      5.81348      5.10130         0.334821     -0.331271     -0.622843
O      13.40671      5.68153      4.73994         0.137266      0.179847      0.980470
O       1.76741      5.65497      9.22774         0.219735      0.334307      1.007519
O      13.38518      5.64798      9.19729         0.172895      0.454056      1.874169
O       1.79024      9.65668      0.34481         0.291107     -0.385079      2.179938
O       1.80526      9.69380     13.72100         0.400339     -0.482492      0.441624
O      13.37116      9.60687      0.53703         0.116487     -0.396446      0.272426
O      13.32230      9.50977     13.55637         0.086470      0.100935      0.526957
O       1.91509      9.52701      4.92322        -0.063661      0.024277     -0.882535
O      13.39636      9.64620      4.88715        -0.011009     -0.537800      0.241759
O       1.95608      9.38831      9.25579         0.235481      0.359195      0.279549
O      13.48837      9.51144      9.36450        -0.228720     -0.326127      0.567770
O       5.62723      1.91778      0.53086         0.286971     -0.297578      0.132564
O       5.55002      2.08593     13.60122         0.072230     -0.760444      1.952626
O       5.93057     13.41330      0.62900        -0.559587      0.008404      0.783485
O       5.59962     13.48496     13.64794         0.212271     -0.018536     -0.791030
O       5.60997      1.84293      4.85575         0.291092      0.384755      1.159711
O       5.63390     13.47210      4.78054        -0.083790     -0.370164      0.805602
O       5.75841      1.85694      9.11613        -0.320154     -0.031692      1.206137
O       5.58883     13.43330      9.19499         0.669122     -0.675196      1.834475
O       5.60494      5.57366      0.58943         0.284372      0.633587     -0.184661
O       5.71763      5.91046     13.69734        -0.094581     -0.538324     -0.324190
O       5.61244      5.58631      4.87353         0.413638      0.424605      1.069990
O       5.90659      5.80482      9.30585        -0.307293     -0.157118      0.330491
O       5.80189      9.78329      0.57934        -0.483913     -0.510631      0.535539
O       5.85848      9.48620     13.69890        -0.275722      0.104034      0.002164
O       5.67197      9.25222      4.94254         0.250454      0.958452     -0.579977
O       5.69064      9.69187      9.24151         0.220265     -0.420862      1.592078
O       9.52640      1.88798      0.46687         0.113194     -0.044251     -0.944404
O       9.59848      2.05626     13.68514        -0.212039     -0.398751      0.827798
O       9.61046     13.36036      0.69263        -0.147979     -0.146251     -0.790886
O       9.52919     13.44833     13.53984         0.460177      0.316113     -0.644599
O       9.60205      1.73954      4.89020        -0.350448      0.439087      1.235555
O       9.31389     13.45085      4.90867         1.115844      0.057317      1.668767
O       9.48181      1.88626      9.18363         0.224617     -0.130335      1.007247
O       9.51046     13.50354      9.19208        -0.391738      0.015559      1.446375
O       9.48769      5.80779      0.51219         0.554306     -0.087432      0.957359
O       9.65987      5.58321     13.76606        -0.215707      0.437980     -0.281831
O       9.33236      5.69514      4.87334         0.489877      0.064926     -0.992344
O       9.59228      5.52671      9.16610        -0.274459      0.597880      2.460736
O       9.66464      9.70654      0.52955        -0.330002     -0.402161      0.588729
O       9.55248      9.59122     13.61992         0.014144     -0.387541      0.398520
O       9.49886      9.57754      5.02633        -0.049969     -0.343669      0.897342
O       9.75069      9.66574      9.23017        -0.886913     -0.373941      1.077014
O       3.71613      1.77765      2.75576         1.276434      0.329392     -0.368135
O       3.75170      1.79209     15.97265        -0.158614      0.677916     -1.103975
O       3.79281     13.52935      2.63119        -0.407129     -0.822009     -0.037025
O       3.79388     13.39649     15.74729        -0.325372      0.425578      0.379936
O       0.00897      1.85419      2.78088        -1.090366      0.035835      0.517344
O      15.31862      1.83073     15.86323         0.195295      0.591752     -0.542648
O      15.29278     13.37917      2.67457         0.123758     -0.111755     -0.064738
O      15.18577     13.42896     15.74387         0.710189     -0.119022     -0.117279
O       3.84574      1.85199      7.11560        -1.133134      0.293763      0.077558
O       3.77823     13.34945      7.09380         0.115020      0.442887     -0.522345
O      15.23970      1.88506      7.09083         1.163073      0.234599     -0.238864
O      15.30259     13.32000      7.13810         0.163363      0.238899     -0.455803
O       3.74722      1.92538     11.32157         0.181467     -0.577494      0.502949
O       3.80882     13.18919     11.46674        -0.412873      0.708159     -0.414972
O      15.35688      1.90773     11.46637        -0.523289     -0.318737     -0.008312
O      15.34088     13.34871     11.50211        -0.493935     -0.300468     -0.758075
O       3.77608      5.74250      2.76323        -0.677953     -0.262391     -0.143367
O       3.84227      5.79330     15.89298        -0.281941     -0.470586     -0.778361
O       0.03229      5.67513      2.78438        -0.413706      0.302405      0.006390
O       0.00295      5.72068     15.77366        -0.226355      0.397257     -0.301561
O       3.89353      5.60339      7.21592        -0.963099      0.440637     -0.035295
O      15.28654      5.67440      7.13332         0.295198      0.416588     -0.833563
O       3.81254      5.83516     11.19316        -0.463534     -0.035554      0.920317
O       0.01396      5.85159     11.54495        -0.719260     -0.637723     -0.575838
O       3.73107      9.55886      2.67493         0.364307      0.150870     -0.311109
O       3.85690      9.61020     15.87652        -0.638330     -0.224746     -0.300633
O      15.27230      9.69122      2.77218         0.580537     -0.451111     -0.584483
O      15.26681      9.62617     15.86539        -0.231022     -0.290579     -0.583409
O       3.82947      9.50903      6.99158         0.234130     -0.015284      0.475134
O       0.05811      9.50096      6.99086        -1.085422     -0.229668      0.081480
O       3.86346      9.53783     11.50874         0.435041      0.331964     -0.118119
O       0.01783      9.49100     11.42383        -0.929393     -0.342106      0.304096
O       7.65979      1.83875      2.68942        -0.598787      0.013160     -0.222384
O       7.62670      1.85907     15.79917        -0.487423      0.518066     -0.266502
O       7.70159     13.50279      2.88115        -1.156220     -0.620823     -0.474466
O       7.62485     13.39936     15.67058         0.977993      0.510440      0.223520
O       7.67944      1.88766      7.10955        -0.225334     -0.273081     -0.555413
O       7.55508     13.46781      6.96965         0.086336     -0.485176      0.518706
O       7.55770      1.91468     11.44702        -0.388487      0.317164     -0.066848
O       7.64472     13.43493     11.51220        -0.957303     -0.265723     -0.477120
O       7.64474      5.67896      2.65830        -0.182622      0.262495      0.323180
O       7.58913      5.81614     15.79297         1.289193     -0.208671      0.262129
O       7.62282      5.59529      7.24656         0.149727      0.685501     -1.085196
O       7.68541      5.52997     11.44105         0.077706      0.856763      0.133786
O       7.65353      9.40451      2.59435        -0.615522      0.474055      0.424886
O       7.66638      9.64819     15.89902         0.047525     -0.268747     -0.325244
O       7.62343      9.52568      7.23046        -0.277830      0.490253     -0.607207
O       7.68619      9.60468     11.46456        -0.273455      0.002215     -0.181249
O      11.37632      1.93287      2.74777         1.699928     -0.059935     -0.173280
O      11.48241      2.00632     15.71985         0.500484     -0.142129      0.325951
O      11.48485     13.36802      2.87877        -0.338596     -0.095361     -0.572678
O      11.40353     13.34768     15.95454         0.392286      1.146545     -1.064625
O      11.48508      1.94934      7.12831        -0.082209     -0.836718      0.012306
O      11.53520     13.42863      7.05974        -1.189134     -0.129882     -0.122926
O      11.39662      1.76759     11.28035         1.840264     -0.008299      0.573682
O      11.49993     13.55417     11.36703        -0.290528     -0.150938     -0.007917
O      11.49448      5.62162      2.77734         0.382478      0.850826     -0.318782
O      11.54816      5.75295     15.86027        -0.475702      0.435907      0.027896
O      11.47402      5.70582      7.05859         0.275512      0.342491     -0.807167
O      11.46033      5.64565     11.40866        -0.419001     -0.339045      0.225943
O      11.45260      9.53097      2.83725         0.379540     -0.264791     -0.542965
O      11.53118      9.58459     15.84913        -0.080997     -0.418867     -0.472539
O      11.51132      9.49219      7.19895         0.255974      0.124521     -0.943496
O      11.43552      9.51558     11.46679         0.577760      0.051837      0.505235
O       1.88488      3.78126      2.80078        -0.009369      0.890119     -0.107684
O       1.85603      3.80723     15.77388         0.549964     -0.158718     -0.761676
O       1.73891     15.30868      2.63133         0.540289     -0.346995     -0.037478
O       1.71636     15.29102     15.84217         1.072984      0.099736      0.056236
O      13.49590      3.74035      2.88409        -0.432744      1.127356     -0.134505
O      13.31451      3.84376     15.80094         0.930633      0.215697     -0.287547
O      13.23882     15.25312      2.65148         0.659121      1.887150      0.418124
O      13.32516      0.12646     15.98558        -0.380188     -1.610832     -1.033836
O       1.94178      3.80572      7.23958        -0.312239     -0.649447     -0.660395
O       1.81466     15.27404      7.25511         0.286189      0.575479     -0.694288
O      13.33405      3.82272      7.18979         0.373700      0.193596     -1.337356
O      13.47110     15.31355      7.18190        -0.741280      0.178461     -0.614426
O       1.82933      3.74633     11.60340         0.618976      0.867636     -0.857935
O       1.78121     15.20578     11.38537         0.898314      0.222319     -0.226540
O      13.40734      3.75644     11.49765         0.191526      0.050890     -0.276633
O      13.49732     15.28852     11.44339        -0.274352      0.193309     -0.290677
O       1.80512      7.68045      2.70583         0.067634      0.267911     -0.538029
O       1.93846      7.58536     15.83317        -0.308934      1.223408     -0.348947
O      13.38457      7.70052      2.92563         0.408863     -0.344783     -1.202545
O      13.43761      7.61072     15.75853        -0.112598      1.555980      0.198589
O       1.96797      7.63467      7.14198         0.060039     -0.201763     -0.001271
O      13.43978      7.58313      7.07995        -0.048980      0.025627     -0.575644
O       1.89886      7.65988     11.49263         0.015906     -0.711938      0.126938
O      13.23297      7.48255     11.46692         0.555193      2.391175      0.250213
O       1.89274     11.50235      2.84640         0.026701     -0.016643     -1.126985
O       1.91350     11.45976     15.90922        -0.220930      1.028626     -0.671472
O      13.27988     11.55243      2.76796         0.779003     -1.148273     -0.774489
O      13.26502     11.59020     15.77922         0.663034     -1.081567     -0.721672
O       1.88130     11.50336      7.08774         0.310944     -0.889039     -0.488624
O      13.46501     11.41478      7.22501         0.008186     -0.422740     -1.377238
O       1.77978     11.39001     11.53590         1.019998      0.571974     -0.824101
O      13.30446     11.41155     11.45120         0.397102      0.560754     -0.239189
O       5.69279      3.74356      2.79579        -0.291487     -0.099480     -0.299478
O       5.74428      3.84276     15.92788        -0.359179     -0.435217     -0.806044
O       5.66474     15.34518      2.80375         0.481776      0.361370     -0.485923
O       5.69041      0.04338     15.86652        -0.118774     -0.633804     -0.379538
O       5.76715      3.75102      7.15907        -0.370885      0.236402     -0.249501
O       5.72099     15.35095      7.03123        -0.331445     -1.101867     -0.054661
O       5.51204      3.81242     11.38572         0.519956      0.136536     -0.124752
O       5.66885     15.32434     11.43087        -0.159463     -0.403630     -0.205559
O       5.63272      7.58775      2.69930         0.196911      1.064076     -0.210480
O       5.80047      7.68418     15.94620        -0.785130      0.176647     -0.264178
O       5.74655      7.50829      6.99248         0.066407      1.627241      0.612156
O       5.78128      7.65540     11.59683         0.291777      0.465342     -0.949405
O       5.71987     11.49383      2.84553        -0.019491     -0.471242     -0.429482
O       5.72802     11.53702     15.77518        -0.182279     -0.181055      0.008065
O       5.65844     11.42906      6.99408         0.378162      0.435292     -0.408610
O       5.75913     11.52134     11.67376         0.300074     -0.908859     -0.960735
O       9.57465      3.79113      2.71728        -0.471549      0.386109      0.000726
O       9.52222      3.86995     15.94715         0.036742      0.148826     -0.285348
O       9.61630     15.29832      2.69147        -0.014616      0.399921     -0.046987
O       9.63195      0.01582     15.82583        -0.362773     -0.453253     -0.447143
O       9.61328      3.79911      7.08916        -0.423349     -0.149448     -0.687632
O       9.63010     15.33145      7.19067        -0.260758     -0.471504     -0.360451
O       9.57019      3.69443     11.50548         0.165437      1.492499     -0.110776
O       9.36964      0.05095     11.48642         0.615098     -1.067748     -0.131885
O       9.55930      7.62284      2.73074         0.534285     -0.093140      0.220633
O       9.60981      7.77484     16.00461        -0.095787     -1.099939     -0.829750
O       9.52241      7.56341      7.10694        -0.139464      0.840834      0.006032
O       9.60081      7.62660     11.22957        -0.542525     -0.493622      0.699035
O       9.53654     11.41373      2.89847        -0.270712      0.006727     -0.667055
O       9.59412     11.53316     15.68863        -0.128812     -0.266752      0.264734
O       9.55034     11.54013      7.16660        -0.179345     -0.138935     -0.417249
O       9.63373     11.57506     11.46340        -0.400507     -0.297388     -0.099924
