  # total energy = -7875.88226637 
CRSYTAL
PRIMVEC
    15.6000000000000000    0.0000000000000000    0.0000000000000000
     0.0000000000000000   15.6000000000000000    0.0000000000000000
     0.0000000000000000    0.0000000000000000    17.640000000000000
PRESSURE
-5.71118 -5.71047 1.44726 -0.027403 0.110409 -0.025979
PRIMCOORD
320 1
Pb       3.81066      3.80781      4.43983        -0.065403      0.105509     -0.977864
Pb       3.97340      3.98162     17.61526        -0.259743     -0.507685     -0.957730
Pb       3.77922     15.45579      4.36392         0.056834      0.665118     -0.748917
Pb       3.77641     15.57025      0.03431        -0.160139      0.139715     -1.107790
Pb      15.57340      3.85928      4.38207         0.459334      0.494495     -0.752816
Pb       0.02626      4.00122      0.00800        -0.034090     -0.287303     -0.836868
Pb      15.56474     15.53648      4.35085        -0.001975     -0.438252     -0.682333
Pb      15.41620     15.59269     17.62498         0.620161      0.244553     -1.005268
Pb       3.81988      4.01427      8.84240        -0.009754     -0.218595     -1.230585
Pb       3.88009      0.00088      8.76088         0.044293      0.195410     -0.612251
Pb      15.54670      3.98582      8.85632         0.051702     -0.071247     -1.504305
Pb      15.55139     15.58549      8.67614        -0.395530      0.212145     -0.227150
Pb       3.94886      3.67366     13.28303         0.239449      0.177577     -0.482663
Pb       3.83495     15.53851     13.16141         0.818907     -0.001247     -0.387310
Pb       0.01778      3.87280     13.19316         0.110818      0.273164     -0.663287
Pb      15.52999      0.02132     13.19612        -0.141599      0.027925     -0.473682
Pb       3.93140      7.77018      4.46203        -0.199011     -0.378718     -1.026561
Pb       3.99440      7.76493     17.62933        -0.325920      0.224485     -0.911937
Pb       0.06837      7.85805      4.36863        -0.346685     -0.451568     -0.563934
Pb       0.08711      7.78647     17.51624         0.046073      0.104854     -0.538652
Pb       3.90089      7.85297      8.83653        -0.326447      0.105406     -0.664106
Pb      15.50161      7.79337      8.89929        -0.161153      0.300854     -1.246490
Pb       3.92773      7.73259     13.18657        -0.363678      0.317364     -0.862805
Pb       0.11054      7.81012     13.19890        -0.075993     -0.115435     -0.856464
Pb       3.91512     11.65994      4.37561        -0.112998     -0.475604     -0.849706
Pb       3.87175     11.70498     17.62475         0.196946     -0.248164     -0.997959
Pb      15.56578     11.66634      4.30781         0.036924      0.248619     -0.029433
Pb      15.57928     11.70225     17.46893         0.219333     -0.338816     -0.393051
Pb       3.82453     11.71492      8.86495         0.336952     -0.313235     -0.714518
Pb      15.52048     11.83078      8.79126        -0.348242     -0.691745     -1.095802
Pb       3.83915     11.82019     13.17668         0.007218     -0.564133     -0.693400
Pb      15.44457     11.75254     13.19481         0.615730     -0.289346     -0.883274
Pb       7.79434      3.64677      4.52159        -0.027806      0.347605     -1.139705
Pb       7.74895      3.90826     17.63992         0.321843     -0.257955     -0.817954
Pb       7.62620     15.45720      4.43642        -0.003865      0.371056     -0.555249
Pb       7.68766      0.02347     17.59491         0.084302     -0.122517     -0.822804
Pb       7.57220      3.95042      8.82432         0.222927     -0.120915     -0.245270
Pb       7.76907      0.00876      8.82111        -0.004376     -0.052126     -1.203872
Pb       7.96500      3.96670     13.22797        -0.280257     -0.208894     -1.036992
Pb       7.81610      0.10314     13.18703        -0.069563     -0.170148     -0.692487
Pb       7.90906      7.68856      4.42076        -0.145891     -0.334610     -1.136920
Pb       7.78364      7.84810      0.04571         0.443026     -0.501443     -1.123954
Pb       7.70340      7.83937      8.78888         0.238897     -0.146307     -0.463911
Pb       7.73801      7.88172     13.16142         0.725314     -0.154644     -0.585196
Pb       7.81849     11.63943      4.42137        -0.070969     -0.025443     -0.980838
Pb       7.76944     11.68495     17.59858         0.089277      0.096140     -1.174284
Pb       7.82116     11.75942      8.83177         0.301682      0.145276     -0.473321
Pb       7.75739     11.82599     13.16930         0.188569     -0.538898     -0.844059
Pb      11.74175      3.83033      4.41033        -0.006287      0.035541     -1.235532
Pb      11.73079      3.81672      0.04805         0.285714     -0.007224     -0.568025
Pb      11.56766     15.40480      4.43730         0.267110      0.489113     -0.694319
Pb      11.49978     15.47983      0.03579         0.195888     -0.056964     -0.976295
Pb      11.58002      3.93488      8.81020         0.420672      0.034522     -0.810226
Pb      11.80924      0.02676      8.75513        -0.202766      0.330314     -1.002824
Pb      11.80985      3.93039     13.17650        -0.435759      0.222412     -0.543157
Pb      11.67626     15.57317     13.15750        -0.511864      0.005632     -0.549533
Pb      11.71761      7.68466      4.33082         0.211689     -0.170877     -1.045669
Pb      11.63733      7.69535     17.54598         0.137077      0.229891     -0.563921
Pb      11.58540      7.81186      8.75195         0.574463     -0.225624     -0.576348
Pb      11.70681      7.72596     13.19171         0.195340     -0.026832     -0.742108
Pb      11.69079     11.54218      4.24952         0.051046      0.213367      0.082085
Pb      11.73817     11.59175     17.49634        -0.608077      0.204330     -0.228407
Pb      11.73530     11.68631      8.75315        -0.333046     -0.025072     -0.597785
Pb      11.60213     11.67392     13.13660        -0.259235     -0.053387     -0.618044
Ti       1.90059      1.83293      2.32893         0.905074      0.664365      0.593417
Ti       1.95298      1.93794     15.58586        -0.039750     -0.897361      1.450637
Ti       1.88842     13.57709      2.22115        -0.668007      0.667493      0.900702
Ti       2.02181     13.60148     15.54752        -0.442511      0.539384      1.596054
Ti      13.64569      1.84222      2.39189        -0.459928      0.895353      2.083910
Ti      13.66815      1.95974     15.57493         0.227453      0.251613      1.687936
Ti      13.47517     13.58621      2.28281         1.246244      0.458911      1.618526
Ti      13.64426     13.61301     15.46545        -0.055245      0.827631      0.356006
Ti       1.79997      1.90570      6.72608         0.815683      0.756901      1.517737
Ti       1.92049     13.61440      6.75147        -0.563977      0.407803      1.401599
Ti      13.63161      1.98986      6.56634        -0.155126     -0.319785      2.822320
Ti      13.56577     13.67304      6.60121         0.492029     -0.537926      2.614598
Ti       2.01736      1.89978     11.10319        -0.765605      0.722405      1.518605
Ti       1.84989     13.69986     11.01928         0.219384     -0.992881      2.001954
Ti      13.62333      1.99016     11.11624         0.135183      0.117762      1.908481
Ti      13.58915     13.71936     11.08889        -0.004802     -0.812306      1.834042
Ti       2.04821      5.80166      2.29589        -0.958388      0.210957      3.149493
Ti       2.08160      5.77625     15.44626        -0.827969      0.601192      1.656755
Ti      13.72658      5.78498      2.19595         0.186088      0.430838      3.514378
Ti      13.66634      5.89087     15.49424         0.443080     -0.431501      0.965783
Ti       1.93506      5.93289      6.71098        -0.748719     -0.780263      1.610840
Ti      13.60553      5.83932      6.65091         0.772628      0.493876      2.454708
Ti       2.02073      5.73250     11.10353        -0.230909      1.440664      3.186543
Ti      13.70234      5.83328     11.07760        -0.321209      1.023139      1.209897
Ti       1.95382      9.74292      2.30477        -0.156327     -0.731864      0.148063
Ti       2.00210      9.72600     15.42017        -0.205549     -0.485544      1.594580
Ti      13.62858      9.76118      2.33694         0.683292     -1.282024      2.007333
Ti      13.64275      9.79056     15.54480        -0.097904     -1.466013      1.497379
Ti       1.93305      9.77607      6.83493        -0.768070     -0.545990      3.904753
Ti      13.54107      9.75008      6.72425         1.760430     -0.232527      1.816799
Ti       1.95567      9.71341     11.15192        -0.058109     -0.306699      2.161964
Ti      13.60773      9.75410     11.17653         0.783469     -0.991429      0.770884
Ti       5.80901      1.86727      2.25643        -0.423301      0.202488      3.342086
Ti       5.79944      1.90834     15.61074         0.007061     -0.362413      0.939410
Ti       5.77079     13.49446      2.26247         0.553956      0.279732      1.354274
Ti       5.90737     13.59498     15.56130        -0.446350      0.200706      1.934441
Ti       5.76154      1.93306      6.72417         0.117102     -0.864589      2.167213
Ti       5.77198     13.65941      6.71863         0.645509      0.234676      4.500330
Ti       5.86518      1.97994     11.09707         1.019752     -0.189154      1.792699
Ti       5.85302     13.62863     11.01039         0.091178      0.625610      1.536473
Ti       5.93476      5.80471      2.26724        -0.255249      0.132150      3.491148
Ti       5.99805      5.81950     15.46383        -0.467426     -0.243235      2.199132
Ti       5.86231      5.84240      6.64716        -0.851968     -0.439687      2.023161
Ti       5.86832      5.88574     11.19018         0.509723     -1.060445      1.430318
Ti       5.86688      9.64905      2.31584        -0.613903     -0.275339      2.494412
Ti       5.87317      9.62059     15.44628         0.304264      0.940438      1.224570
Ti       5.87549      9.82172      6.82884        -1.229227      0.346994      1.223562
Ti       5.86342      9.70177     11.13991         0.200788      0.536920      2.486253
Ti       9.65709      1.81302      2.37018         0.749663      1.196700      2.328960
Ti       9.80842      1.96764     15.61091        -0.227355     -0.692371      1.269746
Ti       9.68397     13.55872      2.24757        -0.147037      0.018953      1.114521
Ti       9.73877     13.64203     15.50059         0.286569     -0.161796      1.048849
Ti       9.70822      1.95172      6.72491        -0.162405     -0.472758      2.229461
Ti       9.71280     13.63787      6.71456        -0.261251     -0.036452      2.409218
Ti       9.80653      1.98329     11.05251        -1.028551     -0.118452      1.879615
Ti       9.71785     13.65460     10.99929        -0.164627     -0.251340      1.857666
Ti       9.78950      5.78245      2.23733        -0.475753     -0.425469      2.061127
Ti       9.84618      5.72870     15.54509        -0.516814      0.843792      1.785115
Ti       9.67596      5.81177      6.77221         0.639519      0.146738     -0.009820
Ti       9.76281      5.83964     11.04951        -0.350696     -0.094294      2.642621
Ti       9.71196      9.68183      2.23562         0.060295     -0.109442      2.341842
Ti       9.75055      9.66539     15.50148         0.078679      0.034237      3.466465
Ti       9.71432      9.71405      6.71228         0.419255      0.440679      4.617172
Ti       9.82717      9.64399     11.10504        -1.730704      0.743288      1.424499
O       1.99190      1.89842      0.58881        -0.063959     -0.047767     -0.102460
O       1.98658      2.01587     13.84040        -0.075739     -0.245664     -1.586761
O       1.89948     13.62218      0.47331         0.185519     -0.326307     -0.729679
O       2.06650     13.50985     13.85919         0.164424      0.502235     -2.629586
O      13.63621      2.05504      0.70261         0.058689     -0.397923     -1.911817
O      13.72382      2.02339     13.85680         0.047917     -0.405793     -1.422761
O      13.39468     13.44925      0.57801         0.563283      0.382893     -1.241424
O      13.59557     13.64791     13.70110         0.120007     -0.209849     -0.346362
O       1.86424      1.82637      4.99660         0.015489     -0.255429     -0.677334
O       1.86228     13.62744      5.04516         0.558239      0.013311     -1.483833
O      13.63560      1.64894      4.88488         0.272157      0.829391     -1.081252
O      13.63774     13.62544      4.91754        -0.189619      0.176016     -1.682973
O       2.01184      1.94807      9.42053        -0.080678     -0.072822     -1.044240
O       1.84761     13.73312      9.30519         0.192385     -0.319831     -0.230564
O      13.55521      1.89678      9.45245        -0.091989     -0.087837     -1.926920
O      13.64679     13.74172      9.39657        -0.069479     -0.073809     -1.944797
O       2.11713      5.89193      0.60536         0.121152     -0.414307     -2.176899
O       1.90138      5.79059     13.75117         0.299256     -0.404150     -1.171301
O      13.68699      5.64718      0.51123        -0.249987     -0.007402     -1.966513
O      13.66584      5.82793     13.74374         0.028599     -0.072061      0.209278
O       1.81226      5.98661      5.01062         0.211550     -0.144597     -1.369096
O      13.78034      5.87322      4.95329        -0.496098     -0.098275     -1.158871
O       2.04891      5.80435      9.42095        -0.130855     -0.044349     -2.226028
O      13.69282      5.82881      9.33757         0.039766      0.148083     -0.291649
O       1.95858      9.67852      0.56153         0.027827      0.160055      0.114146
O       1.89951      9.70857     13.70492         0.069765      0.161368     -0.554348
O      13.70291      9.81979      0.67407        -0.134614      0.396327     -2.327540
O      13.57894      9.75738     13.83591         0.214345      0.301464     -1.091472
O       2.01285      9.70337      5.19831         0.194896      0.299660     -4.135529
O      13.63646      9.90145      5.02373        -0.367090     -0.325227     -1.736713
O       1.95715      9.57289      9.44049         0.090660      0.349712     -1.154615
O      13.60634      9.62554      9.45409        -0.187686      0.105043     -0.746880
O       5.91664      1.91575      0.57043        -0.223582      0.311350     -1.589321
O       5.80262      1.96530     13.87408        -0.287685     -0.308163     -0.653591
O       5.88508     13.31455      0.57426        -0.072269      0.334476     -1.612670
O       5.91925     13.69132     13.88207        -0.045826     -0.122268     -2.116238
O       5.87054      1.72733      5.03465        -0.184169      0.505866     -1.515661
O       5.90099     13.71989      5.05747        -0.070312     -0.363852     -3.736178
O       5.90778      1.98783      9.36880         0.063585      0.041142     -0.769772
O       5.62607     13.75364      9.29394         0.735063     -0.390136      0.077828
O       5.79874      5.90026      0.56340        -0.160009     -0.265403     -1.843711
O       5.95881      5.76424     13.78925         0.111073      0.048680     -2.002401
O       5.82836      5.77978      4.96367         0.149238      0.326143     -1.443459
O       5.89930      5.72906      9.47154         0.119583      0.302847     -1.695056
O       5.73090      9.56842      0.63315         0.372078     -0.003017     -2.370160
O       6.04889      9.74048     13.74115        -0.435005     -0.370690     -0.331539
O       5.75240      9.98109      5.12313         0.237067     -0.418540     -1.015591
O       5.76871      9.72465      9.43429         0.198961     -0.367503     -1.900891
O       9.64563      1.95893      0.69636         0.149303     -0.405097     -2.290360
O       9.86524      1.95378     13.90656        -0.047024     -0.063633     -0.831897
O       9.71224     13.64710      0.53385         0.064637     -0.040167     -0.930325
O       9.63279     13.75227     13.78436         0.562392     -0.064724     -1.216757
O       9.67419      2.04471      5.02460         0.371520      0.016453     -1.826914
O       9.70838     13.54022      5.00510        -0.396998     -0.131672     -1.741486
O       9.78756      1.88890      9.34730        -0.082984      0.170486     -1.911121
O       9.56896     13.62509      9.29219         0.437797      0.492546     -0.600020
O       9.80313      5.95229      0.53971        -0.045863     -0.384199     -1.272168
O       9.86861      5.56961     13.85202        -0.056197      0.316526     -1.659977
O       9.64095      5.91039      5.01517         0.314844     -0.165664     -0.437729
O       9.67799      5.90184      9.34954        -0.023908     -0.071884     -1.813063
O       9.65031      9.55482      0.55271        -0.012397      0.189982     -1.718309
O       9.86000      9.75887     13.85492        -0.015022     -0.041522     -2.759629
O       9.81614      9.80259      5.06317        -0.175882      0.189499     -2.994404
O       9.77482      9.74945      9.38712         0.192252     -0.402804     -0.848341
O       3.86788      1.93513      2.85130         0.777802     -0.239104     -0.275738
O       3.83816      1.96584     16.05390         0.762155     -0.260823      0.132505
O       3.90495     13.59764      2.59941        -0.106121     -0.172296      0.559742
O       3.95725     13.65847     15.90145        -0.517901     -1.091464      0.706079
O       0.07327      1.89923      2.71163        -0.970742     -0.543128      0.317540
O       0.04513      1.89956     16.14820        -1.089172     -0.085165     -0.285592
O       0.00340     13.71962      2.67664        -0.248497     -0.379658     -0.072896
O       0.03033     13.58104     15.65278        -0.984063     -0.255595      1.080838
O       3.81830      1.77730      7.20636         0.342657      0.837316     -0.547615
O       3.86784     13.81566      7.10588        -0.621034     -0.504385     -0.104135
O      15.51337      1.93482      7.30164        -0.387572     -0.057521     -0.618127
O      15.55022     13.57656      7.01352        -0.483945      0.085540      0.717543
O       3.97161      1.91122     11.58305        -0.457570      0.437839      0.123620
O       4.03050     13.52208     11.53141        -1.116862      0.262486      0.142853
O      15.55478      1.97219     11.47634         0.958748     -0.108989      0.607647
O      15.57252     13.62876     11.44990         1.052155      0.114758      0.418382
O       3.85911      5.82470      2.83309         0.769008      0.148263     -0.029912
O       3.98915      5.75724     15.74593        -0.512950     -0.099961      0.733391
O      15.56989      5.74877      2.56429         0.918893     -0.146655      0.242930
O       0.06115      5.84359     15.95045        -0.742138     -0.396516      0.167215
O       3.81939      5.72306      7.03872         0.820621     -0.051311      0.433147
O      15.57185      5.83382      7.20493        -0.138287      0.267739      0.371150
O       3.97793      6.00388     11.48085        -0.520547     -0.828265      0.325804
O       0.07915      5.88016     11.51693        -0.214767     -0.473849     -0.116807
O       3.84830      9.77703      2.68251        -0.081062     -0.255555      0.807741
O       3.90250      9.61869     15.89128         0.113070      0.424838     -0.053240
O      15.59069      9.70600      2.82102         0.608678      0.557978      0.008212
O      15.58852      9.70964     16.09451        -0.182087      0.399342     -0.639898
O       3.90745      9.79714      7.28021         0.075443     -0.223688      0.273382
O      15.51565      9.77671      7.19551         0.616584     -0.126764      0.309810
O       3.96389      9.68133     11.62090        -0.240703      0.031747     -0.152091
O      15.56623      9.66814     11.59549         0.275956      0.243099     -0.026720
O       7.78452      1.84279      2.87365        -0.493306      0.061345     -0.125019
O       7.72707      1.85440     16.05449         0.816596      0.069279     -0.002423
O       7.75199     13.48839      2.69360         0.228204      0.208431      0.407839
O       7.85897     13.70760     15.92892        -0.969914     -0.299284      0.701318
O       7.80200      1.89192      7.00031        -0.009639      0.738446      0.632575
O       7.70056     13.59705      7.25567         0.208204      0.141381     -0.391283
O       7.84096      1.86679     11.68471        -0.616188      0.546091     -0.611245
O       7.83851     13.66069     11.50794        -0.784257      0.193071     -0.166226
O       7.79790      6.00748      2.62260         0.242180     -0.126725      0.070029
O       7.88677      5.79194     15.99352        -0.825652     -0.329416      0.034271
O       7.77077      5.86733      7.04704        -0.220771     -0.190481      0.621017
O       7.87171      5.96414     11.61831        -0.084581     -0.609405     -0.053941
O       7.74510      9.65468      2.80860         0.980270      0.558653     -0.188571
O       7.85104      9.52362     15.91962        -0.601190      0.509873      0.381195
O       7.80669      9.84314      7.26183        -0.589568     -0.386801     -0.481929
O       7.89400      9.69685     11.56086        -0.237486     -0.461518      0.001615
O      11.73795      2.02904      2.87156        -0.989852     -0.359969     -0.214986
O      11.73081      2.00267     16.11030         0.095863     -0.818504     -0.101328
O      11.61071     13.60203      2.64524         0.188456     -0.179255      0.645296
O      11.74864     13.70153     15.82918        -0.439160     -0.350964      0.453488
O      11.77248      1.91301      7.10734        -0.745202      0.109955      0.031333
O      11.64271     13.61157      6.95946         0.482448      0.381580      0.551705
O      11.65052      2.06621     11.48409         1.295290     -0.425604      0.581231
O      11.70020     13.62357     11.36493        -0.544991      0.368433      0.544604
O      11.67707      5.74209      2.70179         0.362331      0.139889      0.334069
O      11.73600      5.75279     15.91844         0.764908      0.251928      0.357682
O      11.65181      5.78965      7.26038         0.292352      0.842977     -0.504179
O      11.70930      5.80135     11.52586        -0.040342      0.030647     -0.042810
O      11.74379      9.64854      2.75662        -0.446523      0.577679      0.026419
O      11.67331      9.70972     16.02907         0.119985      0.086249      0.063957
O      11.69539      9.74705      7.28594        -1.323040      0.049370     -0.417138
O      11.65032      9.70542     11.72982         0.699653      0.206307     -0.409359
O       2.01566      3.83765      2.89532        -0.472571      0.285788     -0.396004
O       1.94116      3.77230     15.91767         0.099103      2.205641      0.459285
O       1.98998     15.48392      2.67780         0.242780      0.589403      0.403283
O       1.98953     15.54938     15.95869        -0.149562     -0.029526      0.213278
O      13.78409      3.80103      2.86464        -0.779505      0.354602      0.042207
O      13.61475      3.87574     15.89931         0.617391      0.094547      0.284977
O      13.56527     15.52147      2.73648         0.101698     -0.161640     -0.295785
O      13.72896     15.51975     15.86826        -0.081665      0.635855      0.458979
O       1.78592      3.82563      7.04100         0.571320      0.109103      0.538500
O       1.75626     15.57831      7.24874         0.516871     -0.282585     -0.466410
O      13.64282      3.92004      7.03682        -0.062708     -0.563768     -0.220029
O      13.58353      0.01331      7.08732         0.287964     -0.707750      0.195783
O       2.06367      3.86991     11.43954        -0.025312     -0.317314      0.506125
O       2.09532     15.58640     11.52066        -0.646924     -0.724911      0.109946
O      13.63697      3.95917     11.45864         0.434011     -0.801587      0.466922
O      13.73382     15.56683     11.56252        -0.697388      0.863525      0.399187
O       1.91239      7.73993      2.77586         0.181405      0.767355      0.088959
O       1.87063      7.75101     15.78804         0.491924     -0.139234      0.419794
O      13.72817      7.72814      2.65469        -0.549701      0.145505      0.218928
O      13.59067      7.87054     16.03744         0.289505     -1.287269     -0.342345
O       2.00037      7.79797      7.15891        -0.081368      0.188921      0.474214
O      13.59032      7.81030      7.07481        -0.185991     -0.340649      0.210973
O       2.03898      7.79356     11.64806        -0.399802     -0.188642      0.031090
O      13.67089      7.75953     11.62500        -0.420964     -0.103013     -0.084151
O       1.93604     11.74188      2.68931        -0.007016     -1.140903      0.262448
O       1.85511     11.62980     15.80795         0.742455     -0.061355      0.871540
O      13.74484     11.73407      2.85159        -0.852843     -0.394879     -0.452711
O      13.53267     11.64662     16.01475         0.749797      0.789591     -0.294113
O       1.91295     11.70728      7.32633         0.406041      0.389130     -0.145104
O      13.56995     11.66749      7.16686        -0.038034      0.977304      0.387106
O       1.96434     11.65426     11.56796         0.011887      0.944511     -0.408726
O      13.66218     11.63341     11.47147        -0.203566      0.869595      0.443049
O       5.87062      3.95021      2.79144         0.125597     -0.915583     -0.508470
O       5.83159      3.78351     15.94834         0.251222      1.258737      0.653861
O       5.80490     15.58698      2.64114         0.251734     -0.768974      0.077611
O       5.69841     15.50650     16.16695         0.891834      0.520691     -0.195184
O       5.89107      3.88278      7.22103        -0.447220     -0.102915     -0.427039
O       5.88158      0.01518      7.18588        -0.016556      0.017473      0.246252
O       5.99608      3.92676     11.52200        -0.533732     -0.662000      0.263335
O       5.82959     15.59607     11.55023         0.153328     -0.431458     -0.202582
O       5.86312      7.76520      2.84519        -0.736322      0.122148      0.073691
O       5.83438      7.73130     15.91288         0.159569     -0.229278      0.096078
O       5.74018      7.70348      7.19897         0.561465      1.038366     -0.190748
O       5.93651      7.73771     11.66838        -0.140232      1.054035     -0.186205
O       5.78761     11.55858      2.64396         0.129397      0.978652      0.869322
O       5.91460     11.59269     15.91847         0.107876      0.034297      0.436995
O       5.70973     11.74672      7.22593         0.209616     -0.338839     -0.031001
O       5.95237     11.54785     11.57960        -0.047904      1.777624     -0.266364
O       9.57816      3.89962      2.60009         0.241701     -0.041220      0.586747
O       9.81187      3.83668     15.99597        -0.573300     -0.205753      0.726746
O       9.81507     15.52114      2.68622        -0.287454     -0.217050      0.250233
O       9.80589     15.55213     15.99620         0.033192      0.882228      0.498377
O       9.88966      3.96031      7.15819        -1.011776     -1.160769     -0.068631
O       9.65048     15.57856      7.02929         0.477746      0.097154      0.268417
O       9.64761      3.89824     11.51812         0.276010      0.256733     -0.158011
O       9.77323      0.11687     11.52934         0.388122     -1.578944      0.221115
O       9.80495      7.85125      2.76269        -0.096184     -0.792737      0.457447
O       9.83356      7.65578     15.98581         0.057755      0.746920     -0.284218
O       9.65663      7.82369      7.11305         0.227990      0.222980      0.230414
O       9.77291      7.74484     11.55333         0.591412      0.283404     -0.024520
O       9.83144     11.60766      2.60290        -0.551287      0.099128      0.323316
O       9.73067     11.71499     15.87765        -0.027191     -0.512725      0.375250
O       9.71410     11.78095      7.35077         0.077962     -1.118815     -0.678719
O       9.68194     11.71152     11.45524         0.714370      0.303523      0.385662
