  # total energy = -7874.85162151 
CRSYTAL
PRIMVEC
    15.2000000000000000    0.0000000000000000    0.0000000000000000
     0.0000000000000000   15.2000000000000000    0.0000000000000000
     0.0000000000000000    0.0000000000000000    17.000000000000000
PRESSURE
8.34277 8.58177 3.28325 -0.22669 -0.186116 -0.071751
PRIMCOORD
320 1
Pb       3.61584      3.86505      4.32688         0.191536      0.154589     -0.398569
Pb       4.03709      3.93671      0.02603        -0.852560     -0.462813      0.025219
Pb       3.58469      0.25900      4.39892         0.363868     -0.426046     -0.492715
Pb       3.92060     15.14745     16.96739        -0.172319      0.578215      0.302097
Pb       0.02052      3.91566      4.18894         0.060151     -0.063169      0.142777
Pb       0.19607      3.82635     16.92076        -0.195466     -0.190868      0.160953
Pb      15.13596      0.33837      4.55114         0.304586     -0.875308     -1.006056
Pb       0.07820     15.04963     16.92290         0.026674      0.719391     -0.144417
Pb       3.99606      3.87533      8.40310        -0.639124     -0.786172      0.134441
Pb       3.85660     14.92812      8.78639        -0.278145      0.665855     -0.846864
Pb       0.15078      3.65920      8.72260        -0.584244      0.083929     -0.492922
Pb      14.85932     15.07871      8.56184         0.775425      0.274652      0.454387
Pb       3.84395      3.72584     12.56328        -0.211051      0.016990      0.109044
Pb       3.83028      0.00137     12.82716         0.133486      0.099178     -0.162643
Pb      15.15060      3.82326     12.70264         0.537255     -0.252370     -0.335997
Pb       0.09010     15.18493     12.90367         0.095323     -0.381509     -0.240509
Pb       3.66489      7.72055      4.36897        -0.077141     -0.310728     -0.555172
Pb       3.83619      7.64933     16.99750        -0.233161      0.094165      0.025489
Pb      15.03304      7.90177      4.33705         0.692620     -0.703309     -0.124675
Pb      15.15836      7.52715     16.81625         0.722393      0.237573     -0.072996
Pb       3.83235      7.58828      8.31857        -0.271065      0.052013      0.297814
Pb      15.03096      7.47320      8.53650         0.160635      0.557697     -0.754268
Pb       3.72599      7.40397     12.56978         0.304562      0.584062      0.901847
Pb      15.16953      7.33936     12.73369        -0.112488      0.546739     -0.286430
Pb       3.46121     11.51350      4.39381         0.475882      0.125599     -0.617094
Pb       4.10595     11.45607      0.35533        -0.854928     -0.519433     -0.743732
Pb      15.03890     11.55367      4.22931         1.014024     -0.281226     -0.031586
Pb       0.15748     11.39926     16.90571        -0.036233     -0.480446     -0.447604
Pb       3.67611     11.41140      8.56584        -0.097005     -0.459638     -0.120980
Pb      15.01822     11.40861      8.60245         0.676649     -0.636671     -0.272679
Pb       3.68646     11.28288     12.69612         0.596567      0.037590      0.429719
Pb      15.15826     11.00356     12.97330        -0.043584      0.489409     -0.436989
Pb       7.55362      3.80271      4.24165         0.050466     -0.131775     -0.150489
Pb       7.56420      3.78676      0.11341         0.070229     -0.141329     -0.558817
Pb       7.57466     15.11018      4.24390        -0.115398      0.508074     -0.235206
Pb       7.66293     15.07980     16.98458         0.256016      0.511760      0.200125
Pb       7.71372      3.69065      8.34303        -0.080696      0.202370     -0.060396
Pb       7.63946     15.14121      8.44928        -0.236429      0.167905     -0.204454
Pb       7.63222      3.85020     12.77967        -0.333587     -0.696558      0.083625
Pb       7.56442     15.09213     12.85286         0.139572      0.852890     -0.411174
Pb       7.78066      7.58157      4.11827        -0.734428     -0.097759      0.441812
Pb       7.58074      7.74065      0.14005        -0.146993     -0.377734     -0.850248
Pb       7.50802      7.65266      8.28004         0.447325     -0.315081      0.111806
Pb       7.39706      7.54199     12.62252         0.896860      0.366726      0.455710
Pb       7.46431     11.36463      4.27780         0.434359      0.176600      0.205570
Pb       7.57223     11.47950      0.02597         0.201739     -0.227115     -0.138116
Pb       7.53834     11.58491      8.59292         0.188686     -0.711389     -0.419838
Pb       7.50174     11.30513     12.70963        -0.045425     -0.324252     -0.275292
Pb      11.42325      3.89026      4.07377        -0.423987     -0.582084      0.197861
Pb      11.35976      3.59862     16.99010        -0.078175      0.535904     -0.247049
Pb      11.52596     15.16230      4.10567        -0.350617      0.304383      0.438826
Pb      11.49469     15.13959     16.93849        -0.403598     -0.105340      0.014353
Pb      11.46175      3.80980      8.45726        -0.491636     -0.273362     -0.028077
Pb      11.27894      0.03487      8.40387         0.134517     -0.140163      0.298308
Pb      11.31835      3.68523     12.81829        -0.146900      0.090637     -0.073545
Pb      11.42257     15.14432     12.69620        -0.588222     -0.019889      0.297280
Pb      11.49867      7.69237      4.07129        -0.260387     -0.425808     -0.141239
Pb      11.39664      7.54072     16.89786        -0.670504     -0.070461      0.449858
Pb      11.25597      7.49208      8.67388         0.282419     -0.109114     -0.638335
Pb      11.33479      7.52127     12.93687         0.032313      0.265073     -0.728894
Pb      11.38279     11.27624      4.12765         0.164456      0.915047      0.298875
Pb      11.47151     11.49469     16.75043        -0.322537     -0.109510      0.686710
Pb      11.25573     11.47262      8.52577         0.404952      0.108567     -0.357262
Pb      11.28195     11.26268     12.55082         0.560761     -0.257898      0.518616
Ti       1.81714      1.97430      2.21877         0.830545     -1.123348     -0.828126
Ti       1.88442      1.93814     14.95272         0.810569     -0.163790      1.179568
Ti       1.96455     13.35039      2.02765         0.239349      0.909698      1.727001
Ti       2.04317     13.22637     14.94491        -0.580284     -0.440436     -0.258845
Ti      13.30488      1.95150      2.13205        -0.124025     -0.313556      0.924406
Ti      13.29661      1.90656     14.88893         0.087609     -1.239618      0.342202
Ti      13.50019     13.40732      2.21480        -0.839391     -0.458221     -0.721897
Ti      13.36519     13.28035     14.88634        -0.283987      0.182254     -0.658513
Ti       1.86223      1.89288      6.70009         0.679442      0.225042     -0.600032
Ti       1.84922     13.36155      6.60881         0.899972     -0.726443     -0.411887
Ti      13.25513      1.89296      6.54192        -0.541883      0.169424     -0.761700
Ti      13.37554     13.28676      6.40411        -1.567697     -1.098002     -0.124801
Ti       1.88224      1.78590     10.67303         1.020241      0.843057     -0.183146
Ti       1.94217     13.22749     10.85470        -0.930747     -0.910622      0.425190
Ti      13.25712      1.76212     10.84953        -0.137834      1.311308     -1.286011
Ti      13.37600     13.19176     10.89414         0.490964     -0.206349     -0.182271
Ti       1.83301      5.80892      2.27124         0.610521      0.481715      0.488574
Ti       1.98721      5.69435     14.90709         0.086020     -0.157702     -0.135638
Ti      13.30782      5.71658      2.05213        -0.843661      0.156986     -0.327073
Ti      13.18134      5.57741     15.00807         0.462496      0.067739      0.419676
Ti       1.82397      5.65727      6.59826        -0.453625     -0.025524     -1.182725
Ti      13.27405      5.61617      6.27606        -0.091973      0.826240      1.489168
Ti       1.93528      5.63954     10.55259        -0.614150     -1.166118      0.336855
Ti      13.20082      5.56149     10.76444         0.468233      0.379162      0.799589
Ti       1.80381      9.58454      2.18955         0.881126     -0.928351     -1.748171
Ti       1.96286      9.42190     14.95230         0.176781      0.102895      0.911063
Ti      13.29331      9.60995      2.08349        -0.472772     -0.618398     -0.824279
Ti      13.17835      9.42586     15.07706         1.287502      0.417707     -1.998428
Ti       1.84842      9.50803      6.59487        -2.005270      0.145983      1.282330
Ti      13.18144      9.45915      6.55774         1.738320     -0.122436      0.104063
Ti       1.90863      9.31311     10.75869        -0.232106      1.255986     -1.451382
Ti      13.30472      9.37268     10.77418        -0.150172     -0.372016      0.359396
Ti       5.66669      1.93597      2.26705        -0.640839     -0.335310     -0.004603
Ti       5.67920      1.90356     15.05986         0.846431     -0.011410      0.474843
Ti       5.77137     13.33849      2.36344        -1.800921      0.561694      0.200377
Ti       5.74669     13.28829     14.91776        -0.307732     -0.299630     -0.703405
Ti       5.65791      1.88391      6.38889        -0.128356     -1.081912     -0.302357
Ti       5.67308     13.33307      6.46525         0.071992     -0.104407      0.127031
Ti       5.72144      1.83216     10.58643        -0.055339      0.482996      0.401508
Ti       5.71505     13.27255     10.77359         0.083777     -0.394189      0.276963
Ti       5.61558      5.79231      2.32778        -1.129471     -0.368067      1.129133
Ti       5.73257      5.74111     14.98696         0.155821      0.151816     -0.895865
Ti       5.72399      5.67207      6.35535        -0.096022     -0.153328     -0.112614
Ti       5.73976      5.65687     10.60007        -0.092092     -0.245319     -0.442400
Ti       5.65577      9.54652      2.38830        -1.001735     -1.007811      1.087030
Ti       5.67257      9.49072     14.90850         0.030748     -0.013858     -0.642863
Ti       5.69889      9.60143      6.52106         0.161384     -0.071142     -0.572078
Ti       5.68098      9.50030     10.63655         0.400688      0.212804      0.340855
Ti       9.48258      1.85501      2.21412        -0.031927     -0.634202      0.062102
Ti       9.46760      1.84285     15.09030        -0.153705     -0.093313     -0.294018
Ti       9.62652     13.35312      2.29578        -0.628704     -1.007561     -0.701385
Ti       9.48866     13.23893     14.89419         0.618895      1.002608      0.172345
Ti       9.45476      1.74697      6.27464         0.187371      1.809367      0.820987
Ti       9.52639     13.21564      6.39110        -0.227776     -0.037741     -0.952634
Ti       9.41678      1.81841     10.75089         0.280697     -0.034669     -0.248829
Ti       9.47956     13.21548     10.83798        -0.056093      0.432239     -0.156370
Ti       9.44054      5.72125      2.09901         0.400638     -0.068710     -0.495804
Ti       9.39126      5.70770     15.02846        -0.810864      0.008002     -0.126005
Ti       9.57958      5.66519      6.39120        -0.835396     -0.757203     -0.274160
Ti       9.49176      5.62358     10.83221        -0.020692      0.266356     -0.917290
Ti       9.44774      9.63472      2.19668         0.181759     -0.722523      0.895986
Ti       9.35414      9.55419     14.91913         0.133748     -1.288611     -0.076998
Ti       9.58191      9.45670      6.37231        -1.206809      0.150142      0.891877
Ti       9.46706      9.36949     10.59768        -0.943661     -0.047268      1.311576
O       1.79300      1.83575      0.45723         0.133166      1.058491     -1.310355
O       1.75941      2.02464     13.21661         0.423403     -0.196221     -1.153691
O       2.04702     13.21365      0.26167        -0.474955     -0.263285     -1.497807
O       1.99946     13.14657     13.16698        -0.101417      0.608476     -0.613135
O      13.27388      1.97499      0.40613         0.050999     -0.136373     -1.366445
O      13.37769      1.87089     13.06265         0.003724     -0.410407     -0.030146
O      13.49995     13.26779      0.40484        -0.356963      0.104133     -0.191959
O      13.34262     13.43516     13.08456         0.145119     -0.206338     -0.117000
O       1.67232      1.82443      4.75156         0.308601      0.253663      0.298454
O       1.73977     13.26545      4.81153         0.593205     -0.085033      0.332472
O      13.32871      1.80322      4.72237         0.078490      0.105653     -0.023847
O      13.39303     13.21488      4.60321        -0.175713      0.536009      0.292272
O       2.03822      1.90816      8.88126        -0.519380     -0.292703     -0.078931
O       1.96864     13.24247      9.07210         0.295041      0.468533     -0.743107
O      13.16761      1.90234      9.02197         0.266034     -0.139358     -0.711635
O      13.30402     13.16065      9.08797         0.075591      0.202047     -0.900994
O       2.07884      5.82828      0.52578        -0.610986     -0.133238     -0.984217
O       2.09132      5.61412     13.12556        -0.522828      0.188316     -0.375862
O      13.28499      5.61259      0.22234         0.077155      0.341569      0.374692
O      13.24323      5.51209     13.24592        -0.182213      0.472676     -0.821967
O       1.81031      5.62307      4.79180        -0.492174     -0.265994     -0.600347
O      13.25106      5.64156      4.53021        -0.172462      0.094127     -1.109522
O       2.00788      5.60512      8.76465        -0.504434      0.333031      0.109445
O      13.11250      5.55278      9.03044         0.096303      0.115614     -1.400167
O       1.85440      9.57631      0.30334        -0.141319     -0.293680      1.284624
O       1.95239      9.29112     13.18664        -0.139025      0.014684     -1.346633
O      13.16787      9.52504      0.28868         0.514406     -0.022397     -0.267517
O      13.22726      9.45047     13.21300        -0.047670     -0.430321      0.148812
O       1.73555      9.48935      4.83861         0.084105      0.552964     -1.421556
O      13.10694      9.40977      4.73167         0.256376      0.748629     -1.017689
O       1.74793      9.34162      8.96658         0.174692     -0.128501      0.025837
O      13.25206      9.31595      8.96926         0.296843      0.263048      0.337496
O       5.63612      2.01219      0.46021        -0.337398     -0.542546     -0.526916
O       5.74126      1.77889     13.34110         0.074751      0.042265     -2.150800
O       5.53749     13.22697      0.55624         0.787293      0.294011     -1.061238
O       5.81003     13.30219     13.09360        -0.198531      0.361455      0.786276
O       5.67530      1.88185      4.59364         0.042829     -0.076559     -0.749902
O       5.65957     13.37225      4.69385         0.004744     -0.560702     -0.826988
O       5.70290      1.84955      8.82337        -0.003151     -0.168845     -0.379537
O       5.77381     13.20723      8.94565        -0.582986      0.485459     -0.368233
O       5.56683      5.85156      0.56022        -0.013131     -0.201154     -1.379231
O       5.74319      5.77426     13.16760         0.088302     -0.292049     -0.419245
O       5.59564      5.44572      4.58254         0.586591      0.474416      0.459704
O       5.58405      5.63467      8.80679         0.641244      0.216546      0.188970
O       5.74103      9.46622      0.64844        -0.076674      0.258878     -1.756114
O       5.75299      9.42744     13.11303         0.020962      0.091349     -0.268141
O       5.50849      9.56312      4.76578         0.110411      0.369080     -0.638951
O       5.66863      9.55663      8.88945         0.336468     -0.126714     -1.895897
O       9.63130      1.58240      0.43376        -0.274732      0.719731     -0.522011
O       9.50049      1.84809     13.32960        -0.200694     -0.164613     -1.336204
O       9.55768     13.44500      0.48144        -0.050150     -0.721528      0.027019
O       9.41978     13.13175     13.12663         0.117151      0.348180     -1.188924
O       9.46179      1.85963      4.54192        -0.050758      0.127537     -0.914964
O       9.54626     13.10860      4.61403        -0.264705      0.562477      0.029310
O       9.44245      1.82501      8.95367        -0.132880     -0.226103     -0.075074
O       9.38798     13.29797      9.07138         0.382680      0.129129     -1.427747
O       9.32662      5.79386      0.31133         0.299104     -0.326719      0.681051
O       9.31089      5.64682     13.20782         0.386605     -0.230658     -0.544281
O       9.52769      5.53121      4.61235        -0.046186      0.372673     -0.937906
O       9.56496      5.74749      9.02611        -0.118870     -0.429302     -0.187289
O       9.32725      9.56666      0.48596         0.066800      0.176387     -2.059806
O       9.31197      9.58568     13.14279         0.587906     -0.047654     -0.065969
O       9.68043      9.51748      4.59532        -0.236597     -0.239182     -0.332279
O       9.43164      9.22611      8.84668         0.235087      0.254767     -0.666760
O       3.67121      1.84224      2.71767         0.611303      0.520162     -0.078635
O       3.82729      1.84252     15.28657        -1.344050      0.093530      0.258803
O       3.74060     13.12670      2.52748        -0.128388      0.084599      0.524519
O       3.88280     13.35005     15.20266        -0.387394      0.159982      0.313385
O      15.16333      1.85279      2.51013        -0.730445      0.242524      0.708894
O      15.17081      2.09190     15.26617         0.272410     -0.415050      0.132667
O       0.10772     13.34161      2.55110        -0.829003      0.035510      0.059126
O       0.03165     13.27238     15.16077         0.245733     -0.258954      0.501186
O       3.73004      1.90670      6.61360         0.346903     -0.180030      0.088291
O       3.77514     13.17190      6.93083        -0.061411      0.840406     -0.140708
O      15.11508      1.89509      6.99609        -0.145858     -0.156728     -0.048813
O       0.00167     13.28386      6.86697        -1.203993      0.162516      0.521593
O       3.81605      1.76429     11.03924         0.198148     -0.180185      0.464582
O       3.85258     13.41001     11.23991        -0.245087      0.104478     -0.548526
O       0.09578      2.10268     10.91881        -1.738645     -0.560569      0.331449
O       0.11218     13.00232     11.02999        -0.660922      0.730276      0.548195
O       3.63640      5.75037      2.75874         1.045592     -0.220521     -0.013642
O       3.88277      5.81533     15.20322        -0.234135     -0.392556      0.811488
O      15.07625      5.61238      2.39817         0.855409      0.069406      0.306427
O       0.07604      5.61990     15.08172        -1.395257      0.298738      0.847091
O       3.77350      5.71482      6.69549         0.624847     -0.305472      0.302022
O      15.05226      5.46868      6.81381         0.268801      0.210735      0.371030
O       3.77039      5.69327     10.97951         1.710922      0.114651     -0.150137
O      15.18056      5.61803     10.90699         0.080294     -0.397319      0.464095
O       3.64939      9.38941      2.54977         0.283884      0.977247      0.292312
O       3.85503      9.41008     15.15178        -0.554533      0.035984      0.679766
O      15.11571      9.48793      2.39040        -0.366877      0.058324      0.659524
O      15.15031      9.45735     15.22040         0.059398     -0.480058      0.413156
O       3.68105      9.51686      6.84480         1.094052     -0.257732      0.252359
O      15.06707      9.53908      6.91475         0.285386     -0.425097      0.085651
O       3.84880      9.20534     10.86628        -0.577760     -0.009006      0.698108
O       0.05509      9.29122     11.21233        -1.161217      0.503504     -0.002804
O       7.55809      1.77454      2.41791         0.048832      0.264534      0.505357
O       7.60186      1.79205     15.44758         0.359556      0.512939      0.413178
O       7.57109     13.25612      2.54319         0.408344      0.316546      0.374474
O       7.63193     13.20243     15.31883        -0.670457      0.197836      0.290712
O       7.56787      1.89150      6.60480         0.371838     -0.173757      0.640076
O       7.64673     13.15896      6.80211        -1.225670      0.611094      0.110322
O       7.57393      1.96011     11.09412         0.168208     -0.123556      0.100471
O       7.55124     13.12909     11.00989         0.887199     -0.108151      0.570203
O       7.46619      5.64328      2.54398         1.455915      0.392823      0.267277
O       7.56217      5.63526     15.47214        -0.356448     -0.193587      0.044240
O       7.61399      5.60940      6.68241        -0.715984      0.367414      0.248409
O       7.58669      5.43928     11.01668        -0.409328      0.212543      0.021785
O       7.54966      9.43011      2.69863        -0.001153      0.167758      0.264318
O       7.52797      9.61332     15.35530         0.523377      0.282552      0.471191
O       7.61494      9.56766      6.57986        -0.075318     -0.629042      0.477072
O       7.60353      9.70131     10.94611        -0.410051     -0.600571      0.175362
O      11.36631      1.73820      2.54742         0.311810      0.887332      0.114159
O      11.43680      1.70832     15.23753        -0.002806      0.357157      0.435380
O      11.47034     13.29233      2.52150         0.006189     -0.271572      0.112457
O      11.41092     13.29221     15.18135         0.367822     -0.014851      0.347247
O      11.34293      1.68531      6.69483        -0.520567      0.105442      0.510148
O      11.36160     13.34234      6.80210         0.536587     -0.248916      0.409669
O      11.37028      1.63503     11.04675         0.140277      0.124279      0.522462
O      11.45835     13.29715     11.00111        -0.839313     -0.141756      0.738418
O      11.32741      5.75334      2.28499        -0.033004     -0.399059      0.577398
O      11.21002      5.65840     15.36152         2.092096      0.438549     -0.072478
O      11.38650      5.70724      6.80410         0.552306     -0.268615      0.178702
O      11.37230      5.75776     11.18420        -0.864432     -0.072236      0.434923
O      11.34553      9.60562      2.43531         0.518035     -0.316381      0.270769
O      11.34012      9.37642     15.27766        -1.294163      0.589926      0.230058
O      11.39076      9.38422      6.93397        -1.008731      0.506652      0.248339
O      11.36544      9.36307     11.05296        -0.012758     -0.038707      0.063839
O       1.82761      3.84758      2.57777        -0.203858     -0.115084      0.068675
O       2.00437      3.87328     15.39142         0.221729     -0.950076      0.170094
O       1.91710     15.19729      2.17604         0.085419     -0.650494      1.091756
O       1.83881     15.18038     15.08196        -0.142070      0.465435      0.428593
O      13.13052      3.81309      2.51475         0.369671      0.042104     -0.248474
O      13.09831      3.71189     15.25465         0.098287      0.515589      0.249752
O      13.21826      0.04601      2.46205         0.667818     -0.531797      0.149839
O      13.36971     15.17302     15.29414         0.459569      0.282675     -0.099167
O       1.87895      3.76530      6.85094        -0.146238     -0.225462      0.346992
O       1.86809      0.04187      6.88944        -0.057864     -1.495795      0.255942
O      13.05145      3.68349      6.60025        -0.025168      1.450594      0.551368
O      13.26139     15.12015      6.81073         0.406155      0.056752      0.449986
O       1.98062      3.76461     10.98523         0.277866      0.219178      0.083045
O       1.85156     15.14837     11.12050        -0.278263      0.170741      0.295026
O      13.10104      3.71608     11.11360         0.322878     -0.154306      0.278212
O      13.52102     15.14771     10.88052         0.303646     -0.549289      1.007295
O       1.74312      7.66023      2.67227        -0.333673     -0.053488      0.106764
O       1.98067      7.55281     15.32219        -0.800781     -0.149344      0.417749
O      13.26145      7.63232      2.42624        -0.279334      0.012269      0.094571
O      13.10591      7.49092     15.17737         0.785369      0.029509      0.595283
O       1.70035      7.53623      6.71919         0.182423      0.555125      0.926303
O      13.32311      7.55388      6.52779         0.111617     -0.902905      0.910406
O       1.83467      7.44740     10.98958         0.174706     -0.273674      0.552496
O      13.27941      7.47445     11.11687         0.268772      0.639378      0.346416
O       1.74184     11.41860      2.52722         0.249529     -0.261033      0.363179
O       1.89753     11.29742     15.07198        -0.109915      0.916338      0.662874
O      13.33826     11.45592      2.46286        -0.030777     -0.514357      0.348834
O      13.26147     11.35321     15.08190        -0.083488      0.587956      0.769796
O       1.79102     11.42191      7.04133         0.271894     -0.264574     -0.360672
O      13.27779     11.40437      6.81680        -0.538373      0.401635      0.185824
O       2.11147     11.23290     11.05663        -0.163478      0.224313     -0.042976
O      13.37313     11.28212     11.15194        -0.573594     -0.526547     -0.028708
O       5.58239      3.79925      2.37903        -0.036984      0.383611      0.674711
O       5.76187      3.80759     15.26247        -0.377154      0.527671      0.698373
O       5.60837     15.18211      2.47817        -0.088953      0.023418      0.430813
O       5.76138     15.19041     15.31310        -0.018559     -1.447340      0.481917
O       5.71538      3.65935      6.73595        -0.177418      2.881923      0.514842
O       5.65785      0.00572      6.68932         0.120070     -1.048841      0.901999
O       5.62362      3.71976     10.89961        -0.347271      0.902981      0.448722
O       5.84276     15.16750     10.87572        -0.190894      0.097281      0.695662
O       5.48670      7.63573      2.74642         1.054040     -0.479478      0.202842
O       5.79785      7.63252     15.35258         0.196737     -0.024504      0.229077
O       5.70322      7.57476      6.62477        -0.181872      0.031238      0.581505
O       5.98004      7.59951     10.70973        -0.354217     -1.395562      0.740274
O       5.62487     11.38382      2.56779         0.140898      0.219945      0.510024
O       5.61978     11.41534     15.33511         0.314309      0.004461      0.330556
O       5.65458     11.45368      6.83563         0.045967     -0.776019      0.039973
O       5.50854     11.40519     11.06404         0.112236     -0.824568      0.033664
O       9.41709      3.71453      2.31245         0.236958      1.080182      0.272799
O       9.55841      3.75039     15.26159        -0.465283     -0.433459      0.813706
O       9.46707     15.13273      2.68350        -0.157015      0.332446      0.329618
O       9.47475     15.09680     15.30740        -0.141507     -0.155420     -0.108050
O       9.38377      3.75929      6.77586         1.137367     -0.552700     -0.083303
O       9.27340     15.14619      6.71393         0.715080     -0.636093      0.209088
O       9.65495      3.68641     11.12938        -0.261609      0.360477      0.071020
O       9.38583     15.11951     11.12793        -0.041255     -0.013381      0.383221
O       9.39804      7.60354      2.34303        -0.022108     -0.039809      0.964041
O       9.28610      7.62066     15.10359         0.541242      0.406235      0.774283
O       9.50861      7.54395      6.62994        -0.437416      0.565033      0.278854
O       9.30813      7.50956     11.08936         0.327241      0.517766      0.118582
O       9.28978     11.43197      2.58522         0.711556     -0.014661     -0.107835
O       9.50606     11.40546     15.25174         0.356610     -0.344760      0.880148
O       9.47953     11.36058      6.77503         0.938914     -0.512535      0.561207
O       9.51046     11.27187     10.82112         1.004109      1.020866      0.607964
