  # total energy = -7879.09963925 
CRSYTAL
PRIMVEC
    15.3600000000000000    0.0000000000000000    0.0000000000000000
     0.0000000000000000   15.3600000000000000    0.0000000000000000
     0.0000000000000000    0.0000000000000000    17.440000000000000
PRESSURE
0.926587 0.636519 -4.78126 0.061388 0.16471 -0.059124
PRIMCOORD
320 1
Pb       3.80376      3.83224      4.43523         0.009781     -0.427081     -0.469262
Pb       3.94851      3.74455     17.37364        -0.038642      0.271837      0.182625
Pb       3.78066     15.29801      4.40153        -0.017109      0.747250     -0.200722
Pb       3.85905      0.01015     17.38669         0.055552     -0.176720      0.070485
Pb       0.01050      3.80065      4.45142         0.245137     -0.053707     -0.835065
Pb       0.16629      3.85967      0.07756        -0.649663      0.132788     -0.164638
Pb       0.07006     15.28373      4.33635         0.010839     -0.122819     -0.282081
Pb      15.09813     15.26677      0.02728         0.053688      0.217361      0.099226
Pb       3.72298      3.95699      8.61144         0.329592     -0.214675      0.234945
Pb       3.83564     15.35641      8.83930        -0.113345     -0.068607     -0.313987
Pb      15.05076      3.97324      8.64936         0.722944     -0.417022      0.295031
Pb      15.23724      0.17503      8.74442         0.325996     -0.224446     -0.005017
Pb       3.85909      3.74479     12.93250        -0.117222      0.079325     -0.052483
Pb       3.71105     15.23499     12.91591         0.356903      0.453828     -0.064172
Pb       0.01454      3.65702     13.14599        -0.212767      0.499158     -0.402842
Pb       0.03623     15.35411     12.94800        -0.254423      0.264777     -0.352252
Pb       3.92071      7.66368      4.27896        -0.477415     -0.315127      0.275193
Pb       3.66523      7.60419      0.02303         0.268828      0.114276     -0.025040
Pb       0.22233      7.72173      4.32350        -0.607795      0.436668     -0.222502
Pb      15.25649      7.75960     17.35858         0.496217     -0.374945      0.179804
Pb       3.95954      7.65256      8.75027        -0.584848     -0.289594     -1.001765
Pb      15.34103      7.63663      8.70680         0.226217      0.213332     -0.361220
Pb       3.79634      7.60814     13.05883         0.186930     -0.568154     -0.375412
Pb       0.08034      7.66891     13.15393        -0.738257     -0.301174     -0.168621
Pb       3.62118     11.49913      4.31712         0.683885     -0.004677     -0.072753
Pb       4.00735     11.32487     17.32598        -0.370860      0.514042      0.121061
Pb       0.13865     11.66977      4.19792        -0.701725     -0.361854      0.239923
Pb      15.22511     11.48490     17.30420         0.132351     -0.144722      0.122778
Pb       3.78526     11.59399      8.72893         0.043443     -0.065928      0.237312
Pb      15.31814     11.35073      8.71519        -0.266005      0.011237     -0.207982
Pb       3.95162     11.46594     12.97231        -0.583703      0.352077     -0.089656
Pb       0.16289     11.48629     13.17008        -0.423850     -0.103830     -0.651201
Pb       7.71591      3.70151      4.42693        -0.143220     -0.537489     -0.263651
Pb       7.64653      3.87709     17.34773        -0.035416      0.122666      0.150573
Pb       7.70833      0.00347      4.39173         0.555097      0.126016     -0.316978
Pb       7.40154     15.31549     17.35136         0.630217      0.228126      0.239303
Pb       7.65234      3.82194      8.70813         0.080257      0.483770     -0.502169
Pb       7.66945     15.26448      8.59202         0.126592     -0.143656      0.308279
Pb       7.84054      4.00748     13.27732        -0.423135     -0.288453     -0.867544
Pb       7.64687      0.18017     13.03352        -0.258239     -0.215402     -0.728016
Pb       7.57727      7.47660      4.26353         0.195801      0.747510      0.871187
Pb       7.58898      7.66133      0.00200         0.070516      0.230528      0.047921
Pb       7.59892      7.87176      8.65624         0.235322     -1.020528     -0.422869
Pb       7.59324      7.61569     12.96591         0.344722      0.049669     -0.093460
Pb       7.71815     11.37484      4.39724        -0.491638      0.550016     -0.064306
Pb       7.52226     11.64015     17.34945         0.553602     -0.613535      0.177711
Pb       7.67828     11.49580      8.69681         0.505419      0.295842     -0.404309
Pb       7.85817     11.61772     13.05514        -0.152782      0.081800     -0.340492
Pb      11.55529      3.75444      4.36759        -0.490803     -0.405449     -0.348307
Pb      11.59410      3.80822      0.08325        -0.350732      0.157241     -0.507379
Pb      11.58975     15.30276      4.30224        -0.880894      0.204597     -0.438889
Pb      11.36463     15.25791     17.30408         0.474016      0.183203      0.243437
Pb      11.53633      4.07346      8.71125        -0.533782     -0.393645     -0.454211
Pb      11.45322     15.28748      8.65251         0.027945      0.092356      0.131004
Pb      11.56212      3.68292     13.32021         0.332231      0.219952     -0.067947
Pb      11.44900     15.33537     13.06129        -0.016649     -0.494170     -0.210533
Pb      11.55456      7.68449      4.20856         0.164233      0.309646      0.001539
Pb      11.42768      7.58453      0.04904         0.125125     -0.052083     -0.473707
Pb      11.55596      7.69147      8.67870        -0.200728      0.211000     -0.422412
Pb      11.38577      7.68486     13.05559         0.411564      0.265357      0.362757
Pb      11.57127     11.37611      4.39200         0.132716      0.067543     -0.324242
Pb      11.33277     11.48329     17.36174         0.206482      0.053236     -0.126404
Pb      11.52053     11.52894      8.85858         0.092182     -0.322295     -0.946947
Pb      11.46390     11.42880     12.98581         0.586824      0.595442      0.102733
Ti       1.83736      1.86122      2.34024         0.685883      0.534330      0.696134
Ti       1.78700      1.81642     15.48724        -0.140311      0.270702     -1.655182
Ti       2.02708     13.47947      2.13474        -1.207825     -0.466153      0.532774
Ti       1.92438     13.41920     15.43565         0.447383     -0.714413     -1.190324
Ti      13.33996      1.89686      2.22321         0.247204     -0.529450     -0.829884
Ti      13.39219      1.87600     15.45886        -1.030991     -0.027679     -0.709182
Ti      13.34734     13.41329      2.27099         0.318874     -0.480563     -0.823972
Ti      13.45397     13.34955     15.32788        -1.954441      0.620070     -0.512811
Ti       1.81930      1.91457      6.75476         0.661315     -0.242883     -1.343046
Ti       1.88198     13.45098      6.82354        -0.542959      0.533144     -0.875772
Ti      13.27890      1.81466      6.63643         0.744928      0.965630     -0.375932
Ti      13.50574     13.39067      6.68476        -0.121672     -0.766043     -0.902107
Ti       1.85220      1.92176     10.98450        -0.251670     -0.353488     -0.315745
Ti       1.83351     13.35381     10.97721         0.643617      0.895639     -1.117394
Ti      13.24197      1.99037     11.03138         2.642765     -0.010344     -1.720837
Ti      13.42010     13.48370     10.97636        -0.036312     -0.673379     -0.920229
Ti       1.97369      5.75562      2.30692        -0.651224     -0.604779      0.375484
Ti       1.97359      5.67344     15.42317        -0.770444      0.652113     -1.044844
Ti      13.46099      5.73874      2.35323         0.608802      0.603768     -0.470974
Ti      13.44273      5.72740     15.52657        -0.028798     -0.498208     -1.834651
Ti       1.86957      5.75001      6.68135         1.117842      1.023265      0.244331
Ti      13.40959      5.75028      6.48675         0.182969      0.709670     -0.804935
Ti       1.81381      5.68655     11.06193         0.174287     -0.916224     -1.257339
Ti      13.32804      5.81643     11.16556         1.615389     -0.146065     -0.745125
Ti       1.90583      9.61555      2.16862        -0.186142     -0.148722     -0.278164
Ti       2.02845      9.59330     15.36139        -1.046721     -0.255729      0.197640
Ti      13.40616      9.63941      2.23631         0.462880     -0.564697      0.635128
Ti      13.41074      9.58810     15.32804        -0.449296     -0.082014     -1.272626
Ti       1.91764      9.59993      6.75839        -0.238116     -1.547645     -1.451193
Ti      13.42353      9.51912      6.67638         0.090839      0.356001     -1.078921
Ti       1.94135      9.48462     11.07691        -1.018041      0.760823     -1.878059
Ti      13.43313      9.61494     11.09760         0.567968     -0.289945     -1.065157
Ti       5.68091      1.95363      2.33851        -0.348120      0.253258     -0.690558
Ti       5.63039      1.98262     15.28179         0.721240     -0.356874     -1.747644
Ti       5.75237     13.51357      2.37542         0.213937     -0.168188     -1.366605
Ti       5.69478     13.46457     15.26209         0.123028      0.342543     -0.627723
Ti       5.70876      1.83526      6.76906         0.588509      0.347079     -1.482983
Ti       5.75678     13.36281      6.73452         0.998068      0.053981     -0.566390
Ti       5.76897      1.91328     10.96927        -0.106491     -0.098537     -0.428185
Ti       5.82062     13.41697     11.05392         0.154960      0.944742     -0.910163
Ti       5.79184      5.74651      2.37125        -0.764612     -1.517823     -1.101262
Ti       5.77758      5.83228     15.30996        -0.160104     -1.418915     -0.967173
Ti       5.77725      5.66403      6.63216        -0.556661      0.989135     -0.353124
Ti       5.68340      5.72537     10.95412         0.560851     -0.339402      0.130679
Ti       5.71213      9.68698      2.32182         0.728442     -0.191376     -1.871378
Ti       5.80221      9.50209     15.31948         0.750390      0.566147      0.068914
Ti       5.62468      9.67000      6.70804         1.513775     -1.123270     -1.038157
Ti       5.78500      9.59942     11.03820        -0.158039     -0.749278     -0.330667
Ti       9.46230      1.90200      2.04107         0.643447     -1.259963      1.666077
Ti       9.43160      1.87547     15.39656         1.537903      0.402020      0.069164
Ti       9.55602     13.34050      2.28889        -0.284707      1.505875      0.590113
Ti       9.53785     13.45261     15.31400         1.168840     -0.331664     -1.249858
Ti       9.57054      1.91877      6.80125        -0.085011      0.370240     -2.077769
Ti       9.72779     13.36961      6.62688        -1.555817      0.268899     -0.370157
Ti       9.56339      2.01221     10.90234        -0.502576     -1.231411      0.987063
Ti       9.65479     13.47377     10.89586        -0.338975      0.426415      0.410334
Ti       9.60313      5.65500      2.45357         0.424333     -0.216671     -2.218344
Ti       9.60325      5.75375     15.40256         0.612896      0.670314      0.356142
Ti       9.58596      5.84376      6.58879        -1.033244     -0.900393      0.651537
Ti       9.62338      5.71433     11.06958        -0.897761      0.204812     -2.233856
Ti       9.48718      9.54469      2.30509         0.695669      0.827199     -0.455718
Ti       9.58202      9.56043     15.40876        -0.057575     -0.149214     -0.519872
Ti       9.55742      9.54725      6.62472         0.508573      0.533142      0.314726
Ti       9.51119      9.59816     11.04990         1.083037      0.316253     -0.982202
O       1.85135      1.91347      0.58264         0.296161      0.053394     -1.228017
O       1.67792      1.90555     13.63915         0.343137     -0.435830      1.582488
O       1.98435     13.45565      0.39720         0.194898     -0.133617     -0.911535
O       1.95844     13.38386     13.59955        -0.159892      0.167713      0.605373
O      13.39941      1.76143      0.38074        -0.071508      0.340994      1.470096
O      13.44348      1.96082     13.59610        -0.302914      0.018302      0.028382
O      13.34750     13.44331      0.44867         0.329079     -0.426485      0.375196
O      13.21772     13.30660     13.57204         0.767043      0.220792      0.155067
O       1.82605      1.79535      4.91250         0.202857      0.131826      0.860906
O       1.76425     13.57656      4.98031         0.700561     -0.497002      0.837816
O      13.18456      1.88417      4.83333         0.452490      0.253002      0.036272
O      13.54278     13.37945      4.83864        -0.301127     -0.012666      0.815942
O       1.80173      1.91895      9.22731         0.267152     -0.018194     -1.079806
O       1.93635     13.50807      9.16429        -0.274251     -0.413063      0.037048
O      13.41089      2.04546      9.13179        -0.195315     -0.384251      1.209690
O      13.39157     13.50505      9.11402         0.113073     -0.201432      1.392291
O       2.01274      5.77555      0.52792        -0.027537     -0.636868     -0.166090
O       1.94507      5.70799     13.62575         0.044659      0.053994      0.795383
O      13.42066      5.71890      0.54209        -0.254957     -0.081211     -0.168689
O      13.36526      5.68123     13.66222         0.001236      0.043552      1.440261
O       1.97506      5.85287      4.89496        -0.241735      0.046438     -0.403526
O      13.56291      5.65701      4.69078        -0.602639      0.294692      0.390979
O       1.87923      5.64758      9.16879        -0.129496      0.264518      1.824028
O      13.37822      5.80475      9.25247        -0.138855      0.006664      1.418182
O       1.90163      9.49995      0.38376         0.263603      0.839066     -0.200519
O       1.93198      9.60420     13.57817         0.471890     -0.171416     -0.680078
O      13.34139      9.65310      0.47101         0.403056      0.224891     -0.306791
O      13.46384      9.69628     13.47948        -0.249667     -0.262839      1.523913
O       1.91578      9.45451      4.90112         0.629663      0.232675      0.391755
O      13.44253      9.54430      4.86431        -0.112484      0.058155      0.684596
O       1.80852      9.52118      9.21261         0.363380     -0.090594      1.885343
O      13.52796      9.53494      9.17875        -0.073944     -0.316039      1.256902
O       5.60932      1.99311      0.44527         0.174328     -0.198401      0.900844
O       5.73774      1.94296     13.42297         0.104311      0.245392      1.569631
O       5.75167     13.62172      0.47084        -0.136258     -0.513865      1.129431
O       5.68556     13.61055     13.46106         0.050944     -0.938478      0.762840
O       5.71071      1.85474      4.89402         0.249808      0.029424      1.267515
O       5.77160     13.27498      4.96485        -0.280209      0.290185     -0.230636
O       5.88772      1.83215      9.14588        -0.398885     -0.044805      1.003590
O       5.83544     13.50724      9.23405        -0.340892     -0.402794      1.161245
O       5.90255      5.66911      0.56746        -0.513698     -0.005242      0.080751
O       5.79985      5.78594     13.43876         0.097026      0.081506      1.906327
O       5.72833      5.69714      4.80204         0.053491      0.127561      0.309601
O       5.77911      5.78602      9.15612        -0.245151      0.067946      0.674063
O       5.78024      9.62479      0.40238        -0.062780      0.093026      1.980865
O       5.82201      9.47865     13.51855        -0.378673      0.026747      0.702482
O       5.71959      9.87783      4.91127        -0.575628     -0.611992      0.278002
O       5.77828      9.51102      9.24160         0.019821      0.205272      0.374860
O       9.51416      2.05414      0.26775        -0.008411     -0.197249      0.216200
O       9.60145      1.79447     13.56329        -0.370213      0.404058      0.545632
O       9.50879     13.32598      0.52876         0.029609     -0.208448     -0.871326
O       9.69625     13.48479     13.44853        -0.737709      0.030216      1.925122
O       9.59602      1.85572      4.95472        -0.074597     -0.049560      0.855368
O       9.60836     13.67031      4.82274         0.175886     -0.784433      0.931182
O       9.67053      2.10644      9.18343        -0.260827     -0.237897     -1.169208
O       9.71975     13.23854      9.11942        -0.001344      0.470499      0.037256
O       9.72832      5.51129      0.57559        -0.552557      0.631350      1.304179
O       9.59714      5.89591     13.61346        -0.030474     -0.536007     -0.422851
O       9.55045      5.92646      4.81171         0.041446     -0.350047     -0.487612
O       9.51010      5.69049      9.21988         0.732223      0.155316      1.419868
O       9.49518      9.78815      0.51706         0.158906     -0.697377      0.611119
O       9.65277      9.48443     13.61791        -0.536591      0.520509     -0.367788
O       9.64928      9.52400      4.86583        -0.140227      0.051589     -0.900389
O       9.48166      9.65642      9.25340         0.289357     -0.159691      0.740557
O       3.75688      1.97292      2.78969         0.256492     -0.450581     -0.209333
O       3.78124      1.86702     15.67440        -0.574326      0.408759      0.289187
O       3.86749     13.45484      2.77150        -0.420767     -0.452618      0.066312
O       3.89706     13.47185     15.77707        -0.100943      0.007016     -0.224157
O      15.30827      1.76139      2.63699        -0.879657      0.526511      0.184948
O      15.23828      1.90149     15.87011         1.788260     -0.298730      0.036422
O       0.16023     13.39361      2.50901        -1.633236      0.194193      0.368080
O      15.30917     13.29015     15.64217         0.441611      0.026213      0.296832
O       3.93044      1.80972      7.12106        -1.585607     -0.357716      0.199826
O       3.87621     13.42261      7.17507        -1.009689      0.003347     -0.283571
O      15.34997      2.01316      6.93143        -1.241351     -0.013342      0.515212
O      15.32314     13.40326      7.07500         0.179438      0.095904      0.345368
O       3.79741      1.83381     11.34845         0.085995      0.409156     -0.066222
O       3.72443     13.47410     11.30934         1.518891     -0.233208      0.456090
O      15.32644      1.90486     11.28779        -1.187851     -0.157452      0.790210
O       0.00504     13.42334     11.38907        -1.219846     -0.220452      0.280007
O       3.83732      5.63295      2.76554         0.038679      0.547904     -0.151632
O       3.85400      5.74090     15.70666         0.559207      0.248755      0.239307
O       0.01824      5.78254      2.62379         0.446397     -0.232479      0.188248
O       0.07053      5.70335     15.85641        -1.295821      0.304941      0.081496
O       3.84560      5.82193      6.99437         0.198167     -0.259434      0.598552
O       0.00357      5.67611      6.89454        -0.552821      0.114131      0.297141
O       3.80783      5.69641     11.48114        -0.294664      0.348599     -0.458817
O       0.01536      5.71652     11.51297        -0.912599      0.116584     -0.259061
O       3.88354      9.75069      2.55847        -0.667379     -0.661218      0.492921
O       3.92306      9.49114     15.78901        -0.450009      0.010137     -0.356551
O       0.11054      9.50273      2.62588        -1.031649      0.468387     -0.121004
O       0.00072      9.65284     15.58384        -0.387888      0.144827      0.671385
O       3.81715      9.63842      7.17165         0.189674      0.058479      0.055714
O       0.09651      9.45457      7.01589        -1.807283      0.165199      0.536096
O       3.86738      9.63755     11.36302        -0.605267     -0.638713      0.342133
O       0.04601      9.55911     11.48706         0.490750      0.115903     -0.000311
O       7.66080      1.87791      2.65979        -0.410955      0.238842     -0.103936
O       7.57776      1.94649     15.72920         0.343574      0.040927     -0.419596
O       7.55255     13.42039      2.70541         0.854447      0.406351      0.235605
O       7.62626     13.41091     15.74424        -0.308469      0.503789     -0.412415
O       7.70360      1.90501      7.01667        -0.622662      0.048335      0.512985
O       7.76652     13.27936      7.06223        -0.168449      0.304737      0.041427
O       7.67395      1.90550     11.32480        -0.012592      0.191291      0.259074
O       7.68335     13.46504     11.35989        -0.300582     -0.383595      0.196245
O       7.63890      5.71166      2.75062         1.060945     -0.015152      0.068675
O       7.70656      5.72314     15.75222        -0.777821      0.409949     -0.087263
O       7.61346      5.75825      6.93418         0.643452     -0.404906      0.174193
O       7.80334      5.61528     11.47373        -1.528044      0.728835      0.145059
O       7.65070      9.48621      2.76307         0.032220      0.286265     -0.122903
O       7.64768      9.56685     15.82891        -0.219765     -0.421147     -0.357386
O       7.69851      9.58065      7.00389        -1.028946      0.599104      0.311899
O       7.65649      9.64796     11.45618         0.245254     -0.166282      0.023407
O      11.41503      1.82744      2.51838         0.734221      0.561747      0.092776
O      11.48896      1.88677     15.64025        -0.719304      0.144349      0.301069
O      11.43094     13.38949      2.60581         1.143512     -0.249288      0.211254
O      11.43809     13.45285     15.68090        -0.567883     -0.392869      0.502283
O      11.50350      1.86378      7.05233         0.190082      0.334419      0.318333
O      11.57579     13.39006      7.08606         0.006232      0.042870     -0.250574
O      11.46426      1.92479     11.27498        -0.130253     -0.307921      0.754765
O      11.52498     13.47181     11.35316         0.379676     -0.313296     -0.189612
O      11.51558      5.66935      2.77081         0.086655      0.242360      0.023984
O      11.46919      5.69853     15.84974         0.942916      0.252129      0.161737
O      11.44264      5.86207      6.92965         0.885027     -0.148585      0.189357
O      11.49376      5.82483     11.43757         0.183738     -0.006367      0.097994
O      11.54317      9.75621      2.70235        -0.520761     -0.780436     -0.166765
O      11.48054      9.44889     15.66687         0.353017      0.952361      0.463176
O      11.49676      9.55182      6.95038         0.528786     -0.738614      0.640260
O      11.55077      9.54502     11.31836        -0.706296      0.306410      0.159277
O       1.90056      3.78173      2.85030        -0.733880      0.549900     -0.407968
O       1.81990      3.80580     15.81235         0.594171     -0.833258      0.094958
O       1.85445     15.29425      2.69061         0.975897      0.602932      0.076356
O       1.90548     15.23773     15.78732        -0.410032      1.796307      0.006881
O      13.43795      3.80300      2.57830        -0.111065     -1.034686      0.190693
O      13.33851      3.77753     15.78869         0.402292      0.886158      0.185205
O      13.35672     15.23190      2.53264         0.333221      1.318716      0.579051
O      13.34255     15.29345     15.73757         0.569438     -0.398533     -0.000874
O       2.05314      3.83996      7.00159        -0.288559     -0.440574     -0.239722
O       1.82645      0.01254      7.08331         0.311261     -0.178244      0.492384
O      13.37654      3.97325      6.91730        -0.381538     -1.840729      0.512343
O      13.42455     15.33828      6.84763         0.103925      0.131004      0.617713
O       1.78092      3.75932     11.49887         0.975892      0.845502     -0.032306
O       1.78090     15.35448     11.31909         0.367961     -0.206080      0.585023
O      13.37595      3.87245     11.35493        -0.245257     -0.417825      0.329422
O      13.41180     15.31181     11.35293         0.081787      1.047149      0.148796
O       2.00933      7.70806      2.41924         0.611899     -0.741393      1.178346
O       1.85980      7.71633     15.82003         0.476192     -0.720362     -0.328099
O      13.46403      7.71931      2.50840        -0.689382     -0.329830      0.506170
O      13.41229      7.68422     15.86894         0.163415     -0.440334     -0.357111
O       1.98236      7.66573      7.14935        -0.184128     -0.517994      0.047981
O      13.50900      7.56355      6.95542        -0.286477      0.946654      0.578032
O       1.84055      7.53543     11.54729         0.897691      1.705977     -0.411730
O      13.49449      7.70019     11.57709        -0.118549     -0.793562     -0.402081
O       1.88132     11.51035      2.60795         0.890710      0.220733     -0.009195
O       2.01600     11.48840     15.58812         0.087157     -0.204039      0.855233
O      13.52803     11.51629      2.69090         0.006816      0.077961      0.018609
O      13.26279     11.45871     15.76698         0.573426      0.144612      0.135079
O       1.78514     11.47054      6.96182         0.841994      1.090095      0.585771
O      13.44815     11.38195      7.06856         0.266776      1.033831      0.070861
O       1.92355     11.51881     11.24586        -0.012868     -1.425252      0.716267
O      13.41189     11.47894     11.32200         0.078349      0.611309     -0.092949
O       5.74588      3.76599      2.72943         0.116654      0.734680      0.247164
O       5.76981      3.89119     15.65478        -0.330836     -0.247742      0.147927
O       5.59469      0.10443      2.61261         0.500960     -1.849019      0.454143
O       5.79318      0.10998     15.62399        -0.271799     -1.292195      0.306572
O       5.64771      3.81017      7.12125         0.620404     -0.204115     -0.380211
O       5.93741     15.22230      7.06737        -0.644644      0.970452     -0.205110
O       5.63943      3.87926     11.24794         0.386185     -1.116311      0.196362
O       5.72618      0.01318     11.41259         0.041157     -0.340851     -0.224733
O       5.76140      7.60089      2.56500        -0.486909      1.362726      0.613126
O       5.83043      7.59799     15.85383        -0.248712      0.601502     -0.484128
O       5.80330      7.68761      6.89085        -0.590757      0.659453      0.589924
O       5.70557      7.60781     11.34118         0.403769      0.783602      0.221072
O       5.82372     11.51019      2.66442        -0.179410      0.198946     -0.320666
O       5.73042     11.47593     15.63157        -0.103233      0.478348     -0.203556
O       5.75392     11.49007      7.26560        -0.204135     -0.033020     -0.055548
O       5.77760     11.45842     11.39667        -0.233061      1.126618      0.170534
O       9.53309      3.78888      2.75755         0.141103     -0.280221      0.052762
O       9.52839      3.89163     15.60071         0.043060     -1.357975     -0.254868
O       9.50072     15.35417      2.44976        -0.022563      0.254497      0.199533
O       9.59232     15.34252     15.75057        -0.866413     -0.135709     -0.217171
O       9.56324      3.85168      6.97655         0.306703      0.602297      0.123365
O       9.62470     15.33750      7.09624         0.105789     -0.612029      0.306035
O       9.64146      3.82033     11.33862         0.262235      0.337978      0.804045
O       9.58928     15.30140     11.15169         0.152808      1.499814      0.415228
O       9.66097      7.65133      2.56000        -0.022973      0.129877      0.106612
O       9.68192      7.68830     15.78707        -0.943895     -0.731401      0.705552
O       9.48431      7.66747      7.09574         0.416699      0.029351      0.174471
O       9.61056      7.77301     11.37872        -0.365046     -1.176255      0.072503
O       9.55107     11.52184      2.72722        -0.371212     -1.015179      0.344781
O       9.45233     11.48388     15.64937         0.545853      0.763493      0.116398
O       9.64407     11.45534      7.01138         0.263043      0.433087     -0.298756
O       9.61971     11.64281     11.40491        -0.278620     -2.197798      0.386981
