  # total energy = -7879.62311410 
CRSYTAL
PRIMVEC
    15.6000000000000000    0.0000000000000000    0.0000000000000000
     0.0000000000000000   15.6000000000000000    0.0000000000000000
     0.0000000000000000    0.0000000000000000    17.640000000000000
PRESSURE
-4.53842 -4.63901 -0.832409 -0.081826 0.214969 -0.020664
PRIMCOORD
320 1
Pb       3.81522      3.92275      4.29858         0.335587     -0.007589     -0.339277
Pb       3.82219      3.78433     17.55221        -0.235711      0.382711     -0.441307
Pb       4.06361      0.08932      4.35095        -0.460700      0.034428      0.010985
Pb       3.96152     15.49342     17.48314        -0.333621     -0.021911     -0.135703
Pb      15.59533      3.87565      4.34116         0.092515      0.026459     -0.492874
Pb      15.49366      3.89160     17.61155         0.291890     -0.004032     -0.376366
Pb      15.57227     15.57346      4.38639        -0.041362      0.129800     -0.031415
Pb       0.16537     15.50016     17.50120        -0.336137      0.180410     -0.194936
Pb       3.96499      3.79535      8.71049        -0.362338      0.554515      0.312206
Pb       3.86668     15.54819      8.75251         0.070306     -0.374558     -0.299771
Pb      15.55446      3.83941      8.71036         0.698769     -0.046965     -0.031824
Pb       0.03470     15.42859      8.92401        -0.094223      0.411488     -0.511671
Pb       3.77176      4.02783     13.17712        -0.069874     -0.241216     -0.206456
Pb       3.77339     15.54009     13.13752         0.120589      0.321476      0.147204
Pb      15.47700      3.84302     13.12649         0.235800     -0.022105      0.155774
Pb      15.59272     15.58710     13.11799         0.131521      0.094207     -0.243946
Pb       3.80923      7.72690      4.32403         0.538754      0.516890      0.142870
Pb       3.73688      7.72887     17.60955         0.370634     -0.012953     -0.330940
Pb      15.47448      7.81872      4.42796         0.101197     -0.005095     -0.705064
Pb      15.50560      7.73411      0.02802        -0.099961      0.172820     -0.511541
Pb       3.93494      7.75919      8.71587        -0.372457     -0.035570     -0.499208
Pb      15.59505      7.68698      8.77388         0.207884      0.176825     -0.407796
Pb       3.86382      7.74110     13.19674        -0.117438      0.005289     -0.542973
Pb      15.43738      7.83108     13.19995         0.317125     -0.480764     -0.054874
Pb       3.88467     11.72341      4.33774         0.246096     -0.326443     -0.495063
Pb       3.91203     11.65001     17.61079        -0.311091      0.348640      0.617684
Pb      15.53703     11.65758      4.45859        -0.037796      0.070437     -0.772635
Pb      15.54066     11.64562      0.10343         0.498209     -0.049336     -0.666209
Pb       3.86754     11.63502      8.70382        -0.239635      0.109668     -0.272865
Pb      15.54939     11.68354      8.80240         0.292375     -0.257945     -0.222177
Pb       3.89488     11.73618     13.18651        -0.188128     -0.680236      0.086072
Pb       0.02765     11.62480     13.14691        -0.276799      0.352324     -0.425507
Pb       7.77769      4.04478      4.32324        -0.160410     -0.301924     -0.406588
Pb       7.72439      3.80937     17.50011         0.878547      0.509363     -0.295431
Pb       7.89943      0.06690      4.28563        -0.181402      0.301440      0.738336
Pb       7.89083     15.52629     17.58650         0.104384     -0.180834     -0.608335
Pb       7.86659      3.85972      8.75411         0.117093      0.122720      0.268803
Pb       7.72682     15.48649      8.74310         0.242038      0.147551     -0.139445
Pb       7.67429      3.92329     13.07314        -0.005429     -0.326878     -0.462868
Pb       7.69436     15.46103     13.22611         0.314505      0.295748     -0.256849
Pb       7.69291      7.95079      4.33394         0.278732      0.188875     -0.221262
Pb       7.80884      7.81882      0.00394        -0.150310     -0.375645     -0.433318
Pb       7.80554      7.77046      8.77087         0.142339     -0.062887     -0.446608
Pb       7.66356      7.69669     13.12558         0.522947      0.358611     -0.026123
Pb       7.77176     11.83736      4.35080        -0.082711     -0.931138      0.277811
Pb       7.73568     11.69817      0.05623         0.350029      0.022682     -0.440044
Pb       7.68495     11.67486      8.89726         0.916479     -0.156090     -1.037663
Pb       7.86244     11.56603     13.23025        -0.150005     -0.321410     -0.054996
Pb      11.55930      4.01127      4.38153         0.009261      0.020213     -0.687761
Pb      11.73220      3.98171     17.52745        -0.488963      0.068463     -0.295616
Pb      11.74151      0.08176      4.40824         0.506765     -0.422748      0.034192
Pb      11.67248      0.00159     17.56594        -0.061509     -0.213445     -0.477989
Pb      11.67988      3.88429      8.79319        -0.041153      0.161171     -0.428866
Pb      11.67170     15.56827      8.85880         0.463126     -0.566093     -0.142013
Pb      11.54189      3.90609     13.22071         0.203235     -0.024097     -0.164246
Pb      11.71838     15.47662     13.16579        -0.102943      0.315652     -0.221169
Pb      11.61816      7.81361      4.38667         0.025687      0.204391     -0.769750
Pb      11.57643      7.87076     17.62877         0.581497     -0.115945     -0.457278
Pb      11.73427      7.74246      8.77081        -0.124509      0.106175     -0.506002
Pb      11.64815      7.81689     13.20677        -0.242764     -0.200939     -0.053615
Pb      11.73879     11.94538      4.43338         0.101076     -0.249630     -0.300442
Pb      11.74706     11.75550      0.00791        -0.637899     -0.288278     -0.590223
Pb      11.68381     11.63490      8.70880        -0.030189      0.482226     -0.839665
Pb      11.76682     11.70983     13.09037         0.027029     -0.421306      0.159660
Ti       1.94285      1.91707      2.36604        -0.211173      0.643868      0.883119
Ti       1.90187      1.97028     15.60476        -0.509092     -0.362499     -0.932180
Ti       2.01038     13.69625      2.44770        -0.080820     -0.531391      0.066394
Ti       1.94055     13.58737     15.47273         0.111243      0.329442      2.458920
Ti      13.63756      1.99377      2.35377         0.422201     -0.084714      1.474399
Ti      13.59336      1.82710     15.56085         0.982986      0.691206     -0.741826
Ti      13.78238     13.73282      2.27507        -0.475541     -0.401156      0.883376
Ti      13.67256     13.56098     15.61499        -0.269137      0.466400     -1.054117
Ti       2.07121      1.83567      6.74909        -1.141836      0.212766      1.466321
Ti       2.08119     13.54434      6.59130        -0.355581      0.559971      0.058822
Ti      13.67334      1.91120      6.95609         1.106401     -1.150678     -0.301266
Ti      13.81590     13.63069      6.76750        -1.196314     -0.253155      0.954083
Ti       1.94730      1.95918     11.14240        -0.337804      0.092913     -0.155052
Ti       2.03093     13.56197     11.23161        -0.955553     -0.109072      0.460366
Ti      13.57730      1.86622     11.21281         0.340734     -0.172457      0.025567
Ti      13.64798     13.57839     11.16065         1.172223     -0.226997      0.096978
Ti       1.92253      5.91526      2.38725        -0.629335     -1.358852     -0.698774
Ti       1.88600      5.89135     15.62260        -0.255891     -0.377869      1.387806
Ti      13.59124      5.82126      2.47883         0.101314      0.586229      0.912310
Ti      13.69389      5.78518     15.54714        -0.741195      0.440785      0.490809
Ti       1.93299      5.78149      6.75664         0.015360      0.288398      0.892148
Ti      13.62418      5.83049      6.61263        -0.180748     -0.179588     -0.023286
Ti       1.77367      5.86257     11.08544         1.035618     -0.208958     -0.629634
Ti      13.57848      5.74738     11.15780        -0.151850      1.113234      0.178418
Ti       1.91366      9.76997      2.38074         0.499744      0.638143      1.537381
Ti       2.00215      9.81454     15.63628        -0.854133     -0.694005      0.768336
Ti      13.66573      9.76510      2.31456        -0.424470     -0.342927      2.009455
Ti      13.72814      9.74810     15.57850        -1.244425     -0.805343      0.993535
Ti       1.86518      9.70922      6.76765         0.392890     -0.423100      0.616031
Ti      13.64548      9.63243      6.74678         0.180509      1.527532      1.191873
Ti       1.88982      9.68904     11.15204         1.009885      0.044945     -0.785647
Ti      13.65426      9.67354     11.15735        -0.111979     -0.130233     -0.590176
Ti       5.94092      2.00323      2.26406        -0.192611      0.458224      1.695482
Ti       5.89329      1.84882     15.65111        -0.355307      0.738875     -0.786839
Ti       5.94992     13.74739      2.49820        -1.616179     -1.178192     -1.110007
Ti       5.83956     13.55519     15.58427         0.554928      1.069732      1.050507
Ti       5.95165      1.95565      6.78241        -0.140893     -0.483198      0.276046
Ti       5.96168     13.64128      6.73565        -0.544914     -0.763096     -1.262325
Ti       5.78583      1.75812     11.22876         0.702588      1.119477      1.105238
Ti       5.92072     13.46523     11.23711        -0.658025      0.554898      0.698853
Ti       5.85520      5.88759      2.23141        -0.782788     -0.179389      0.689403
Ti       5.80593      5.83150     15.63841         0.307384      0.528827      0.766009
Ti       5.84970      5.84381      6.79582         0.328807      0.048234      1.207859
Ti       5.75081      5.78006     11.17304         0.259753      0.127668      0.582829
Ti       5.83116      9.79117      2.34791        -0.372158      0.216544      1.917257
Ti       5.80606      9.79438     15.64675         0.634150     -1.284648      0.579395
Ti       5.84925      9.73936      6.77830         0.066844     -0.209863     -0.094524
Ti       5.74787      9.70638     11.05168         0.123308     -0.313376      3.678704
Ti       9.80349      1.84064      2.32447        -0.265176      1.311752      0.099266
Ti       9.79115      1.92079     15.50404        -0.096035      0.658422      1.972255
Ti       9.79193     13.64996      2.39544         1.013690     -0.208629     -0.971931
Ti       9.80644     13.63265     15.48915        -0.683569     -0.235024      1.035522
Ti       9.84458      1.81896      6.85157        -0.527236      0.543974     -0.059710
Ti       9.76120     13.67043      6.76561         0.924524     -1.659632      1.160342
Ti       9.70385      1.85289     11.20160        -0.085264      0.428029      1.074279
Ti       9.75080     13.60417     11.21094        -0.078490     -0.387608     -0.188781
Ti       9.64595      5.87569      2.33863         0.943737      0.435237     -1.210224
Ti       9.72095      5.94838     15.59829        -0.107490     -1.317475      1.193898
Ti       9.72051      5.83328      6.80216         0.212086      0.352817      0.478442
Ti       9.73115      5.82960     11.09692        -0.376718      0.277659      0.884322
Ti       9.87967      9.85267      2.41986        -0.878634     -0.637551      0.318131
Ti       9.65934      9.78508     15.64027         1.499032     -0.008315      0.490842
Ti       9.71528      9.75463      6.77847        -0.169677      0.498630      0.208940
Ti       9.76549      9.74235     11.15416        -0.913520     -0.606750      0.352117
O       1.89117      2.01634      0.64516         0.130293     -0.330937     -1.055427
O       1.85773      1.85791     13.85056         0.132783      0.227523     -0.964153
O       2.07858     13.72006      0.70941        -0.100362      0.128698     -1.020633
O       1.98237     13.51152     13.79075        -0.494559      0.075920     -2.352917
O      13.61623      2.06101      0.66511         0.001702     -0.100506     -1.909999
O      13.67741      1.89664     13.78234        -0.203191     -0.396655     -0.407478
O      13.67602     13.66002      0.52416        -0.090023      0.041020     -0.259862
O      13.67899     13.49332     13.80632        -0.058517      0.072903      0.341001
O       2.03399      1.82750      5.03447        -0.060436      0.454052     -0.633356
O       1.94095     13.63256      4.82004         0.329459     -0.334793      0.853043
O      13.85410      1.67518      5.25168        -0.499082      0.505698     -0.509505
O      13.87407     13.71146      5.04012        -0.409280     -0.300765     -1.163532
O       1.88453      1.91761      9.38305         0.860171     -0.144131      0.828245
O       2.13999     13.62441      9.54117        -0.099232     -0.027451     -2.180724
O      13.65251      1.80356      9.47805        -0.161065      0.327565     -0.741321
O      13.78430     13.55741      9.44184        -0.032825     -0.118093     -1.365932
O       1.81419      5.81555      0.62063         0.264700      0.192939     -0.154893
O       1.88730      5.79894     13.93841         0.114472      0.125267     -1.739129
O      13.63242      5.73058      0.77794         0.445379     -0.039066     -2.266677
O      13.67966      5.81667     13.81999        -0.036771      0.155125     -1.004392
O       2.01887      5.78722      5.03920        -0.234473      0.015975     -1.257994
O      13.55735      5.92238      4.80772        -0.019595     -0.328231      1.440538
O       1.72094      5.85782      9.29989         0.373734      0.144396      0.204845
O      13.46889      5.77593      9.40096         0.168258      0.100376      0.087934
O       1.85443      9.75956      0.68553         0.037510     -0.137560     -1.441791
O       2.08769      9.79203     13.91646        -0.428404     -0.055440     -0.543618
O      13.69818      9.56055      0.60355        -0.094195      0.828435     -0.673377
O      13.72928      9.79078     13.81975         0.132598      0.028427     -0.152786
O       1.88706      9.74748      5.04891         0.090168     -0.089724     -1.312545
O      13.68059      9.76468      5.03553        -0.059253      0.020800     -1.079503
O       1.86642      9.76313      9.36274        -0.020789     -0.481493      0.737942
O      13.72048      9.57196      9.37308        -0.254905      0.402217      0.784108
O       5.98862      1.76343      0.54899        -0.385184      0.613313     -0.500694
O       5.85483      1.83090     13.89794         0.051299     -0.056388     -0.202940
O       5.88461     13.60151      0.70727         0.132262      0.526116      0.344509
O       5.73793     13.49951     13.90325         0.713400      0.293072     -2.178276
O       5.95869      2.04651      5.07239        -0.146442     -0.038923     -0.532871
O       5.99744     13.60260      4.94063        -0.239960      0.221043      0.124570
O       5.77974      1.80502      9.53714         0.058308     -0.141840     -1.729480
O       5.95005     13.45992      9.52102        -0.070883      0.046881     -1.306345
O       5.88865      5.85293      0.49753        -0.142142      0.056632     -0.161923
O       5.66714      5.90528     13.89300         0.279655     -0.477793     -0.592801
O       5.93080      5.90351      5.10227         0.050513     -0.243544     -1.295692
O       5.85259      5.97712      9.47308        -0.310828     -0.266027     -1.060666
O       5.78098      9.95223      0.66130         0.300268     -0.159485     -1.950522
O       5.93732      9.86836     13.93752        -0.474354     -0.422922     -0.229361
O       5.67871      9.58045      5.05764         0.683914      0.242168     -0.766421
O       5.81131      9.73638      9.36417         0.140916     -0.102910     -1.842679
O       9.78837      1.89967      0.59411         0.074167     -0.189436     -0.090573
O      10.02361      1.86198     13.82296        -0.421482      0.096349     -1.919201
O       9.77893     13.74676      0.61488        -0.013878     -0.435448      0.373571
O       9.73896     13.63525     13.75295         0.467217      0.057169     -0.890876
O       9.95961      1.84630      5.09661        -0.302376     -0.085081      0.192977
O       9.88956     13.81441      5.07403        -0.543295     -0.012710     -2.665238
O       9.79759      1.87452      9.49253        -0.202385     -0.223046     -1.200451
O       9.65963     13.42561      9.47890        -0.098522      0.471943     -0.041151
O       9.59405      5.90106      0.56908         0.193505     -0.002127      0.416740
O       9.81232      6.05685     13.89291         0.066807     -0.432252     -1.224467
O       9.73749      5.83732      5.06207         0.000171     -0.243215     -1.308842
O       9.66305      5.80600      9.35642         0.543291      0.062921     -0.609413
O       9.86585      9.89099      0.67815        -0.261120     -0.039001     -0.814617
O       9.72690      9.67822     13.91417        -0.380309      0.129269     -0.520502
O       9.70795      9.78472      5.05561         0.263848     -0.209383     -1.060452
O       9.63796      9.78343      9.39401         0.546792     -0.150383      0.541359
O       3.99522      2.05619      2.85061        -0.170425     -0.684619     -0.766991
O       3.79874      1.95005     15.96104         1.231575     -0.477545      0.789859
O       3.96985     13.75014      2.89876         0.165829      0.152569     -0.098594
O       3.88307     13.63605     15.73677         0.040171      0.227393      1.335732
O      15.53279      2.05836      2.83497         0.805423     -0.362647     -0.102696
O      15.57267      1.77584     15.90817        -0.449770      0.475336      0.894183
O       0.04029     13.63401      2.73538        -0.102111      0.213103     -0.112292
O      15.54815     13.49451     16.03725         0.713037      0.345972     -0.099342
O       3.95243      2.02601      7.30366        -0.076093     -0.698735     -0.613093
O       4.01750     13.46484      7.14184        -0.833118      0.138009     -0.060723
O       0.11502      1.83092      7.42338        -0.462912     -0.325515     -0.756744
O       0.10017     13.71334      7.05862         0.948418     -0.315328      0.642036
O       3.89299      1.87490     11.63224        -0.402665     -0.139001     -0.041492
O       3.90693     13.57357     11.63065         0.755266      0.456020      0.456663
O       0.00431      1.87916     11.48630        -0.014137      0.354269      0.716024
O       0.04870     13.49143     11.47563        -0.062905     -0.002306      0.806154
O       3.88153      5.68418      2.62952         0.121599      0.654028      0.446138
O       3.79471      5.86872     15.97961         0.327605     -0.063235      0.662108
O      15.57807      5.87116      2.76114         0.480648     -0.047448      0.739409
O      15.56549      5.72459     15.97427         0.062453      0.334459      0.616374
O       3.92297      5.78380      7.07848        -0.144311     -0.008534      0.643924
O      15.47320      5.83608      7.06199        -0.130898     -0.302578     -0.096607
O       3.81261      5.85344     11.63363         0.578881     -0.015456     -0.142919
O      15.55505      5.80846     11.49629        -1.294846     -0.149515      0.439313
O       3.88796      9.84866      2.72735        -0.629797     -0.371267      0.369092
O       3.88093      9.73080     16.18861         0.079259      0.075289     -0.411786
O      15.55752      9.73657      2.83086         0.297376      0.080683      0.001321
O      15.55840      9.74600     16.13872         0.170168      1.100278     -0.404477
O       3.94868      9.68332      7.10780        -0.756667     -0.023488      0.900235
O       0.00962      9.69597      7.11591        -0.394441     -0.199906      0.293252
O       3.83539      9.65687     11.53175         0.529150     -0.733194     -0.121307
O       0.00236      9.60489     11.66506        -0.001029      1.058082     -0.217008
O       7.91907      2.02277      2.80956        -0.470339     -0.183388     -0.133790
O       7.79537      1.94737     15.93387         0.478606     -0.145628      0.131577
O       7.82738     13.63981      2.85051         0.333936      0.156610     -0.241440
O       7.87649     13.73968     15.88679        -0.836515     -0.421663      0.425240
O       7.81788      1.75376      7.15167         0.677688      0.071866      0.461091
O       7.82951     13.73970      7.08755        -0.581299     -0.350473      0.743974
O       7.80380      1.95215     11.62470        -0.116757     -0.502875      0.326389
O       7.83313     13.50205     11.62455        -0.812164      0.132091      0.326031
O       7.73791      5.95057      2.66105        -0.078174     -0.007859      0.683837
O       7.75369      5.89693     15.87991         0.034484     -0.261443      0.343110
O       7.87289      5.81705      7.20732        -1.127140     -0.244700      0.412551
O       7.77628      5.80285     11.50104        -0.154289      0.073464      0.698098
O       7.77298      9.83848      2.75952        -0.406735     -0.010712      0.176215
O       7.75496      9.75768     16.13449        -0.037470      0.072335      0.073251
O       7.82910      9.66833      7.11882        -0.555181     -0.394634      0.478014
O       7.74262      9.78479     11.61922        -0.097898     -0.351487     -0.363791
O      11.72545      1.88089      2.82230        -0.494841      0.148752      0.034409
O      11.70810      2.02829     15.94389         0.088401     -0.730198      0.546904
O      11.70735     13.76343      2.79789         0.448332     -0.116608      0.042788
O      11.67976     13.68295     15.94256        -0.009968     -0.167245      0.357825
O      11.75771      1.76352      7.31806        -0.642207      0.579613     -0.042864
O      11.66468     13.47367      6.99236         1.164625     -0.238838      1.026199
O      11.70732      1.81654     11.52740        -0.180377      0.230716      0.486389
O      11.74315     13.58022     11.36045        -1.025582     -0.097164      1.040602
O      11.68693      5.84696      2.61682        -1.298414      0.432017      1.164775
O      11.72195      5.85850     16.03948         0.148655     -0.016897      0.031228
O      11.63272      5.67171      7.09056         1.419154      0.340786      0.430193
O      11.68463      6.04307     11.59708        -0.027588     -1.272694     -0.195136
O      11.72385      9.83341      2.76324         0.468271     -0.157744      0.298697
O      11.67757      9.65484     15.99452         0.137319      0.255590      0.325660
O      11.72520      9.72288      7.20069        -0.226845      0.153386      0.209675
O      11.69756      9.65039     11.63316        -0.443435      0.562222     -0.495784
O       1.93093      3.86328      2.78621        -0.132007      0.125140      0.601407
O       1.90657      3.83714     15.93079        -0.009269      0.661745      0.688649
O       1.94702      0.04259      2.73531         0.155301      0.362205      0.226980
O       1.88142     15.53994     15.85611         0.281980     -0.920898      0.685067
O      13.59143      3.93118      2.85608         0.036778     -1.001676      0.508890
O      13.67563      3.82159     15.75390        -0.050872      0.372590      1.179921
O      13.79082      0.01779      2.76284        -0.465072      0.062073     -0.122010
O      13.60121     15.52447     15.89340        -0.057745      0.092610      0.450520
O       1.90509      3.90129      7.19844         0.098585     -0.578302     -0.104461
O       2.22122     15.47186      7.04177        -0.272308      0.451223      0.332099
O      13.65637      3.81143      7.17047        -0.258241      0.448825     -0.148846
O      13.56927     15.41511      7.26494         0.443266      0.846099      0.691329
O       1.96334      3.98056     11.49012        -0.074888     -1.659434      0.464472
O       1.94265     15.52470     11.49434         0.041779      0.768442      0.743297
O      13.53254      3.89404     11.61236         0.103912     -0.435843     -0.082491
O      13.71095     15.46979     11.45632        -0.093189      0.939302      0.889631
O       1.97266      7.76923      2.80308         0.020173      0.411248     -0.066428
O       1.75984      7.89689     16.05394         0.864476     -1.014263      0.093767
O      13.56756      7.86988      2.85357         0.305039      0.035324      0.065898
O      13.76970      7.78235     15.98330        -0.235585     -0.076702     -0.143542
O       1.79114      7.73301      7.16205         0.885066     -0.041708      0.122342
O      13.60605      7.75932      7.04726        -0.325984     -1.222703      0.233655
O       1.86743      7.67101     11.60154         0.159585      1.326019      0.128870
O      13.66328      7.82654     11.55819         0.114596     -0.790813      0.408206
O       1.95982     11.71426      2.63083         0.000283     -0.077032      0.804742
O       1.97162     11.70004     16.07041        -0.181549      0.159083      0.035420
O      13.68438     11.79279      2.76626        -0.076240     -0.382009     -0.150599
O      13.47468     11.70614     16.06702         0.755457     -0.744045      0.040300
O       1.96171     11.64991      7.11152         0.027161      0.648366      0.142506
O      13.84236     11.59704      7.28008        -0.858035      0.687467     -0.428102
O       2.06681     11.57840     11.49620        -0.676957      0.004230      0.634595
O      13.60181     11.63066     11.56622         0.384360     -0.511840      0.116179
O       5.92517      3.93820      2.75281         0.266666     -0.127397     -0.309770
O       5.85291      3.86528     16.08001        -0.467559      0.056146     -0.140340
O       5.95516      0.14518      2.85945         0.031064     -0.855036     -0.251993
O       5.90289     15.58795     16.06471        -0.462362     -0.810348     -0.047763
O       6.00166      3.81525      7.29839        -0.495534      0.603426     -0.125532
O       5.81757     15.48462      7.04390        -0.347885      1.251784      0.876607
O       5.85953      3.83328     11.48555        -0.342080      0.386076      0.692679
O       5.97321     15.43703     11.54298        -0.527505      0.379769      0.562344
O       5.62406      7.81357      2.76860         0.973020     -0.311478     -0.437028
O       5.82098      7.77534     16.06934        -0.272675      0.520371      0.026894
O       5.85318      7.71922      7.26199         0.216698      0.211578      0.165653
O       5.85013      7.73101     11.70775        -0.534156      0.714993     -0.651818
O       5.78385     11.74018      2.79636         0.491652      0.399457      0.491106
O       5.85702     11.71262     16.03344        -0.015821     -0.093641      0.517774
O       5.98085     11.64939      7.09174        -0.035691      0.004819      0.462246
O       5.62048     11.58517     11.65899         1.289122      0.050648     -0.693362
O       9.74668      4.00661      2.68472         0.080030     -0.804991      0.748287
O       9.76754      3.89032     15.93682        -0.224673      0.046604      0.011509
O       9.69482     15.54136      2.68194         0.109663      1.169066      0.487297
O       9.75929      0.00904     15.95353         0.333156      0.075310      0.171540
O       9.74872      3.77369      7.26671         0.031190     -0.575418     -0.138432
O       9.79899     15.44701      7.36414         0.013415      2.127993      0.261697
O       9.67284      3.89460     11.51102         0.914249     -0.089622      0.657369
O       9.76064     15.54522     11.64512        -0.252097     -0.409771     -0.126235
O       9.64735      7.92959      2.71459         0.615452     -0.795924      0.552540
O       9.74771      7.76872     16.13536        -0.528013      1.010187      0.092935
O       9.77626      7.74304      7.10110         0.270137      0.171917      0.655863
O       9.71651      7.71504     11.58765        -0.319357      1.200855     -0.244517
O       9.88378     11.76220      2.83824        -0.669509      0.473004      0.247419
O       9.71353     11.69512     15.96048         0.153950      0.246076      0.190542
O       9.65425     11.72094      7.11571         0.086996     -0.812726      0.518661
O       9.62484     11.63804     11.66183         1.309900     -0.305607     -0.147545
