  # total energy = -7877.99919852 
CRSYTAL
PRIMVEC
    15.6000000000000000    0.0000000000000000    0.0000000000000000
     0.0000000000000000   15.6000000000000000    0.0000000000000000
     0.0000000000000000    0.0000000000000000    17.640000000000000
PRESSURE
-4.26019 -4.50354 -7.62023 0.024369 -0.219996 0.010667
PRIMCOORD
320 1
Pb       3.74947      3.75557      4.38548         0.429604      0.357312      0.699444
Pb       3.90596      3.93285     17.58382         0.433107      0.393198      0.201808
Pb       3.86302     15.48991      4.30100         0.046569      0.248035      1.005498
Pb       3.76385     15.57732     17.52036         0.677084     -0.604717      1.340851
Pb       0.04556      3.90293      4.34231        -0.041632     -0.203792      0.720786
Pb      15.59601      3.99951     17.62941         0.026896     -0.101683      0.148770
Pb      15.53149     15.51576      4.26478         0.108484     -0.312807      1.138074
Pb      15.46557      0.02404     17.54212        -0.260023      0.036477      0.634741
Pb       3.79570      3.97656      8.77958         0.316642      0.115796      0.592862
Pb       3.82198      0.05636      8.70152         0.668134     -0.254686      0.673037
Pb      15.54602      3.95884      8.71165         0.261609     -0.215186      0.751536
Pb      15.59607     15.58705      8.73492        -0.198082     -0.179685     -0.247009
Pb       3.93701      3.59747     13.22722        -0.134995      0.687872      0.615647
Pb       3.79267     15.48169     13.12381         0.348623      0.339400      0.604749
Pb       0.01896      3.77410     13.16147        -0.590978      0.501094      0.683224
Pb      15.57819      0.13527     13.10190        -0.243737     -0.779466      1.092371
Pb       3.88505      7.79034      4.40479         0.180836      0.388405      0.382669
Pb       3.94895      7.82157     17.58860         0.538571     -0.415655      0.578059
Pb       0.07906      7.97943      4.41910        -0.191662     -0.301471     -0.156212
Pb       0.07624      7.87460     17.48799        -0.097671     -0.691751      0.787394
Pb       3.93729      7.92955      8.84077        -0.704767     -0.554684      0.469704
Pb      15.52916      7.81368      8.88596         0.230620      0.213919     -0.014396
Pb       3.93558      7.75011     13.10384        -0.558715      0.065757      0.775463
Pb       0.10837      7.88895     13.17810        -0.147311     -0.546263      0.329156
Pb       3.91443     11.65735      4.36063         0.155817     -0.348511      0.426596
Pb       3.94431     11.63615     17.56569        -0.264102      0.292532      0.500807
Pb      15.52374     11.56305      4.28907         0.150822      0.315039      0.134320
Pb      15.54148     11.64964     17.47088         0.263006      0.075931      0.310487
Pb       3.83927     11.59988      8.75899        -0.119650      0.225669      0.538779
Pb      15.48725     11.82070      8.77098         0.480626     -0.212530      0.367119
Pb       3.81742     11.81912     13.12080         0.344381     -0.158487      0.657293
Pb      15.48204     11.64709     13.13020         0.170906      0.413511      0.506842
Pb       7.87581      3.64259      4.54919        -0.376286     -0.091756     -0.398763
Pb       7.76817      3.82403     17.54921        -0.312184      0.768756      0.762757
Pb       7.66805     15.41712      4.33873        -0.254331      0.652853      0.561981
Pb       7.73139      0.00278     17.60552        -0.101927     -0.035280      0.670710
Pb       7.61584      3.93772      8.74053         0.088645     -0.223743      0.487671
Pb       7.83342     15.57713      8.69934        -0.816623      0.216395      0.671433
Pb       8.08349      4.00347     13.07582        -0.969105     -0.467443      0.991128
Pb       7.81230      0.04600     13.21168        -0.325882      0.374823      0.272248
Pb       7.97655      7.71759      4.36942        -0.543765      0.504247      0.429608
Pb       7.82963      7.90495      0.03368        -0.461181     -0.165450     -0.176189
Pb       7.70204      7.84196      8.70063         0.447335     -0.103314      1.014645
Pb       7.73467      7.94392     13.10055         0.157986     -0.236281      0.197880
Pb       7.88337     11.72253      4.41599        -0.606701     -0.339743      0.108648
Pb       7.76766     11.73233      0.02159         0.156972     -0.531334      0.052504
Pb       7.86049     11.73902      8.95917        -0.270242     -0.047827     -0.394943
Pb       7.79080     11.81708     13.18627        -0.001106     -0.398151      0.076730
Pb      11.67523      3.88624      4.44169        -0.061502     -0.660834     -0.227704
Pb      11.85442      3.82210     17.63123        -0.375702     -0.102096      0.186599
Pb      11.48751     15.35841      4.42537         0.658626      0.669964      0.165513
Pb      11.41504     15.45513     17.62143         0.585523      0.414730      0.443815
Pb      11.51688      3.93497      8.79228         0.458497     -0.068859      0.407958
Pb      11.85596      0.07990      8.67977        -0.328919     -0.483721      0.545656
Pb      11.82255      3.94828     13.17639         0.195141     -0.207025      0.509018
Pb      11.68290     15.53497     13.14267         0.243003      0.437331      0.666818
Pb      11.79158      7.61110      4.23086        -0.656390      1.005188      0.905975
Pb      11.67535      7.68102     17.48185         0.099579      0.398996      0.318492
Pb      11.55009      7.80995      8.69108         0.212904     -0.152616      0.292245
Pb      11.75613      7.69079     13.22464        -0.002782      0.254687      0.012992
Pb      11.66768     11.64096      4.21834         0.162182     -0.081506      0.306576
Pb      11.84464     11.54538     17.44617        -0.707026     -0.005494      0.103224
Pb      11.76511     11.60637      8.58760        -0.381175      0.412868      0.595387
Pb      11.59248     11.61664     12.98186        -0.145741      0.228529      0.938682
Ti       1.84985      1.85262      2.35165         0.254886      0.232000     -1.065239
Ti       1.91729      1.89203     15.70999        -0.134431      0.943806     -0.924346
Ti       1.93226     13.54385      2.40794        -0.526556     -0.337262     -1.649466
Ti       1.81234     13.63692     15.66539         0.247710     -0.190972     -1.892580
Ti      13.54031      1.92211      2.49843        -0.479507     -0.515810     -1.012090
Ti      13.61541      1.82828     15.52183        -0.168379      1.474710     -1.254874
Ti      13.64724     13.63910      2.34307        -0.433650      0.256310     -0.747325
Ti      13.52733     13.67554     15.55731         0.597467     -0.004872     -1.296269
Ti       1.94208      1.92808      6.83384         0.083530      0.493740     -0.221671
Ti       1.98256     13.59620      6.74452        -1.239243      0.149879     -0.937293
Ti      13.64878      2.05212      6.80402        -0.131192     -0.782557     -1.567061
Ti      13.61697     13.59915      6.74708         0.297143      0.058720     -1.430126
Ti       1.89057      1.97155     11.15952         0.394417     -0.002092     -0.307851
Ti       1.83505     13.70486     11.29389         0.286606     -0.686557     -1.841066
Ti      13.57748      1.88248     11.15223         0.567280      1.027889     -1.089743
Ti      13.62132     13.66573     11.25909         0.083220     -0.545469     -1.073252
Ti       1.98491      5.84982      2.56819        -0.624578      0.121881     -2.081738
Ti       2.02950      5.84197     15.66344        -0.145241      0.404036     -2.319020
Ti      13.66150      5.85723      2.57097         1.090376     -0.183364     -1.732767
Ti      13.73181      5.80289     15.62830        -0.034215     -0.245374     -2.096224
Ti       1.88329      5.85905      6.89064         0.438586     -0.059738     -0.420742
Ti      13.60083      5.82836      6.78603         0.213520      0.785689     -1.145616
Ti       1.89269      5.80356     11.36591         0.411227      0.090368     -1.883879
Ti      13.67448      5.83214     11.19268        -0.319112     -0.028973     -0.001843
Ti       1.95904      9.73565      2.26500         0.295647     -0.213744     -0.148025
Ti       2.02039      9.75044     15.59746        -0.074270     -0.491834     -1.007237
Ti      13.60037      9.68942      2.08775         0.829531      0.106265     -0.693534
Ti      13.72237      9.65728     15.44711        -0.836949     -0.260485     -0.372276
Ti       1.83757      9.75864      6.89636        -0.318288      0.154994     -1.194134
Ti      13.64917      9.62239      6.77697         0.196929      0.779545      1.115047
Ti       1.91995      9.84491     11.24312        -0.125737     -0.321066     -1.295031
Ti      13.58233      9.73809     11.16790         0.668500     -0.361728     -0.491478
Ti       5.74743      1.98919      2.47968         1.197312     -0.682683     -1.135271
Ti       5.86848      1.86483     15.67939        -0.258458      0.518878     -1.164837
Ti       5.70993     13.61367      2.39120         1.245244     -0.282421     -1.205984
Ti       5.77729     13.58945     15.65583         0.007305      0.261606     -1.448014
Ti       5.79754      2.00603      6.82235         0.019158     -1.000465     -0.929881
Ti       5.77468     13.56477      6.93615         0.228587      0.813850     -2.176852
Ti       5.85346      1.90069     11.21976         0.020449      0.046650     -2.080771
Ti       5.86451     13.66322     11.22467        -0.253344      0.465992     -1.996565
Ti       5.88789      5.80519      2.70682        -0.477504      0.081055     -3.010983
Ti       5.87294      5.89009     15.53079         0.015517     -0.032650     -1.212668
Ti       5.82998      5.93896      6.83015        -0.694323     -0.871720     -0.738533
Ti       5.74424      5.73499     11.37277         0.141248      0.121732     -1.050561
Ti       5.92633      9.68780      2.50133        -0.506556      0.085738     -1.356204
Ti       5.84350      9.79363     15.53847         0.875010     -0.614275     -0.502057
Ti       5.83416      9.71163      6.82643        -0.652084      1.202029     -1.369218
Ti       5.76329      9.83380     11.24160         0.590388     -0.417538     -1.781092
Ti       9.68848      1.86467      2.47586         0.098743     -0.043566     -1.046167
Ti       9.75409      1.94763     15.66661         0.265102     -0.085131     -2.098985
Ti       9.68699     13.60487      2.40930        -0.123063     -0.463645     -1.424127
Ti       9.63823     13.55562     15.61769         0.234577     -0.084614     -0.815360
Ti       9.74970      1.84442      6.82502        -0.780125      0.128882     -1.531339
Ti       9.67727     13.63110      6.85714         0.584191     -0.523795     -0.697446
Ti       9.78208      1.97911     11.16726        -0.176123      0.327969     -0.944226
Ti       9.73754     13.80599     11.19947        -0.159595     -1.474984     -1.586866
Ti       9.69736      5.77342      2.47144        -0.078609     -0.637265     -2.152702
Ti       9.74079      5.80389     15.69411        -0.165958      0.350054     -0.919520
Ti       9.74085      5.78949      6.77677        -0.393789      0.101153     -0.540890
Ti       9.79870      5.91323     11.20518         0.230421     -0.169720     -1.586535
Ti       9.79728      9.66335      2.35105        -0.707509      0.287431     -0.900512
Ti       9.72465      9.75739     15.53376        -0.056441     -0.573512     -0.928105
Ti       9.61861      9.72486      6.76782         0.764373      0.596475     -1.764217
Ti       9.71522      9.75652     11.08333        -0.401941      0.354464     -0.479747
O       1.73811      1.89301      0.54047         0.419162      0.013731      1.601276
O       2.05565      1.86893     13.92475        -0.492849     -0.147955      1.126694
O       1.98877     13.42149      0.58601        -0.215914      0.471647      1.425348
O       1.78620     13.72085     13.80343         0.403299     -0.045904      2.066523
O      13.57960      1.85256      0.67156        -0.055891      0.105090      1.810151
O      13.62780      2.05985     13.66978        -0.038332     -0.760183      1.992962
O      13.55268     13.90302      0.53437         0.215144     -0.841316      1.697896
O      13.54256     13.76355     13.74537        -0.013032     -0.601503      1.627364
O       2.02202      2.21806      5.10350        -0.353860     -1.031063      0.417251
O       1.86026     13.62054      4.94596         0.426943     -0.269379      1.097310
O      13.52526      2.08852      5.00073         0.434792     -0.219459      1.620902
O      13.59654     13.45085      4.92550        -0.040623      0.380288      1.688072
O       1.88487      2.04721      9.40434         0.009974     -0.342535      0.419372
O       1.84257     13.49786      9.50112        -0.168974      0.686861      1.551126
O      13.68751      1.97409      9.30421        -0.380234     -0.359507      1.837620
O      13.66404     13.61219      9.45267        -0.080667      0.213932      1.119890
O       1.89708      5.84899      0.73915         0.313638     -0.164349      1.430487
O       1.90181      6.03755     13.83325         0.463727     -0.542509      1.620571
O      13.84337      5.83015      0.78899        -0.442164     -0.286505      0.758710
O      13.64401      5.71244     13.79245         0.004258      0.232460      1.804446
O       1.93047      5.69544      5.12619        -0.006343      0.606526      0.722263
O      13.53383      6.02167      4.94603        -0.177490     -0.742707      1.177555
O       1.88256      5.67400      9.51516        -0.149347      0.489663      1.782770
O      13.55124      5.78509      9.42381         0.353211      0.225437      0.880012
O       2.03856      9.67849      0.45314        -0.303531      0.349012      1.502309
O       2.07114      9.68911     13.79782        -0.464972      0.179834      1.348363
O      13.72270      9.58201      0.25533        -0.650583      0.565902      2.085514
O      13.66700      9.60209     13.62501        -0.065889      0.540358      1.630771
O       1.64328      9.80909      5.04159         0.510043     -0.385309      1.798251
O      13.88756      9.73079      5.07705        -0.498069     -0.215518     -0.256137
O       1.87803      9.96094      9.41508         0.311770     -0.385543      1.828217
O      13.72890      9.83472      9.36542        -0.821913     -0.417174      1.452485
O       5.93536      1.85281      0.67977        -0.412391      0.459070      0.769330
O       5.88505      1.83750     13.86592        -0.249290      0.048486      1.958654
O       5.67670     13.60642      0.54846         0.334057     -0.174912      1.818239
O       5.84144     13.54480     13.81570        -0.099421      0.233737      1.613583
O       5.83345      2.00953      4.99616        -0.239883     -0.126637      1.608601
O       5.77299     13.59043      5.04043        -0.089276     -0.078342      2.277774
O       5.76523      1.98637      9.33335         0.469313     -0.059979      2.717548
O       5.97852     13.75809      9.38250        -0.325817     -0.529560      1.598895
O       5.67564      5.88028      0.88008         0.453863     -0.209630      1.857940
O       5.88085      5.87060     13.69637        -0.069416      0.088163      1.232263
O       5.91604      5.99469      5.06118        -0.381626     -0.264254      0.713968
O       5.72731      5.61572      9.55691         0.469697      0.515016      1.601108
O       5.83922      9.60374      0.64607         0.311416      0.422507      1.671618
O       5.95863      9.90167     13.74518        -0.423018     -0.486480      1.109649
O       5.76318      9.71585      4.99787         0.242889      0.106176      1.897341
O       5.78460      9.83554      9.37048         0.025307     -0.282784      1.851745
O       9.85130      1.77555      0.64639        -0.611979      0.258635      1.111701
O       9.64624      1.95717     13.80212         0.232869     -0.048276      2.209707
O       9.77264     13.52895      0.58866        -0.294527      0.402347      1.008176
O       9.64564     13.49905     13.81623         0.146425      0.551830      1.298115
O       9.54570      1.76398      4.98448         0.759153      0.464930      1.937575
O       9.73196     13.66067      5.03224        -0.319558     -0.414560      1.191268
O       9.78585      1.95559      9.35177        -0.035523      0.140714      1.643645
O       9.75475     13.73189      9.38370        -0.323696     -0.006045      1.623122
O       9.74765      5.78420      0.66743         0.002046     -0.006833      0.683189
O       9.87710      5.89015     13.90551        -0.249465     -0.234681      1.158471
O       9.72238      5.81462      4.97748         0.093156     -0.012456      1.245967
O      10.01984      5.74487      9.37270        -0.855681      0.774937      1.451155
O       9.70190      9.68244      0.52647         0.112620      0.094551      1.823116
O       9.63872      9.70213     13.69411         0.205122      0.272379      1.820942
O       9.55598      9.76891      4.86771         0.506399     -0.182801      2.594820
O       9.74819      9.82590      9.22153        -0.119346     -0.411632      2.223145
O       3.82703      1.87206      2.83932        -0.668598      0.274351     -0.460688
O       3.87827      1.85083     16.22561         0.311527      0.236829     -1.086724
O       3.87703     13.55674      2.91432        -0.622410     -0.046247     -0.612376
O       3.86795     13.71460     16.03929        -0.236492     -0.587756     -0.549909
O       0.00126      1.87790      2.89056        -0.238812     -0.023282     -0.432598
O      15.47271      1.91504     16.01775         1.111249      0.100816     -0.307792
O      15.54543     13.61805      2.84139        -0.220492     -0.130710     -0.915948
O      15.51862     13.61395     16.12801         0.113542      0.011342     -0.580683
O       3.88070      1.98105      7.32814        -0.350937      0.256511     -0.741601
O       3.83675     13.52809      7.26669         0.497458      0.112471     -0.176292
O      15.59022      1.95863      7.12075        -0.010023      0.096014      0.110513
O       0.02587     13.76127      7.22688        -0.506808     -0.485192     -0.304651
O       3.82763      1.84581     11.69068         0.652763      0.283163     -0.610071
O       3.88322     13.69498     11.57211        -0.376734     -0.058946      0.097617
O      15.52697      1.89608     11.60347         0.492339      0.325483     -0.491956
O      15.50014     13.67498     11.76074         0.268563     -0.145409     -0.648739
O       3.81104      5.83816      3.08619         0.500083     -0.064729     -0.487763
O       3.97974      5.92294     16.09401        -0.581080     -0.350317     -0.262559
O      15.55107      5.93055      3.08131        -0.041314     -0.558364     -0.784906
O       0.13412      5.84122     16.05623        -1.134638     -0.439057      0.112091
O       3.93177      6.00288      7.38111        -0.642856     -0.471974     -0.732199
O      15.53510      5.83554      7.15578         0.252617      0.127078      0.157885
O       3.81152      5.76056     11.78273         0.945472     -0.011549     -0.503912
O       0.03373      5.83708     11.79666        -0.706541     -0.027873     -0.828292
O       3.83848      9.80031      2.81070        -0.205183     -0.480661     -0.208079
O       3.96257      9.73409     16.01511        -0.394315      0.161286     -0.481548
O      15.54102      9.66582      2.59449        -0.047014      0.094842     -0.004233
O       0.03098      9.68572     15.94105         0.131621      0.239181     -0.632323
O       3.83213      9.69147      7.24485         0.032183      0.411677     -0.358532
O      15.55056      9.69217      7.42318        -0.247170      0.015862     -0.889212
O       3.85312      9.88658     11.63756        -0.009605     -0.352554     -0.379502
O      15.58835      9.76014     11.60480         0.132729      0.204007     -0.154727
O       7.73938      1.84880      2.88094         0.075079      0.090040     -0.161491
O       7.78862      1.98088     16.15481        -0.375841     -0.330630     -0.578280
O       7.68244     13.61031      2.81866         0.370707     -0.035689     -0.502937
O       7.77416     13.51338     16.07372         0.249126      0.044614     -0.242341
O       7.75990      1.85751      7.17306         0.052919      0.569139      0.058144
O       7.75042     13.67625      7.28243         0.342375     -0.080338     -0.451903
O       7.80748      2.00760     11.60258         0.203515     -0.261629     -0.435618
O       7.76600     13.71689     11.73300         0.297662      0.068741     -0.799097
O       7.84809      5.75267      2.86889        -0.864472      0.263992      0.233615
O       7.74404      5.79947     15.99110         1.129303     -0.224865      0.025392
O       7.73333      5.89521      7.26072         0.550036      0.011292      0.000269
O       7.92768      5.85021     11.61886        -0.524304     -0.085506     -0.433434
O       7.79360      9.61522      2.84009         0.014913      0.477385     -0.599038
O       7.80831      9.81517     16.06094        -0.229059     -0.282361     -0.321881
O       7.78473      9.73069      7.24032        -0.819031     -0.139359     -0.267490
O       7.73447      9.79419     11.56731         0.431125     -0.210695     -0.551475
O      11.61150      1.82247      2.90743         0.513322      0.191436     -0.162867
O      11.70546      1.91718     15.96082        -0.439939     -0.169581      0.046334
O      11.57808     13.58744      2.77852         0.610606     -0.006554      0.104333
O      11.69431     13.65928     16.01884        -0.617220     -0.300108     -0.344839
O      11.68048      1.91964      7.15525        -0.133998      0.196430     -0.171290
O      11.68735     13.67228      7.13903         0.085206     -0.256196      0.033132
O      11.70045      1.85718     11.58729        -0.073158      0.312971     -0.390113
O      11.66552     13.65840     11.70240        -0.627673      0.066311     -0.632594
O      11.58678      5.74354      2.86226         1.303505      0.129065      0.071613
O      11.82651      5.78213     16.07785        -0.898136      0.293382      0.001070
O      11.63022      5.84527      7.18034         0.136700      0.255884     -0.340757
O      11.73368      5.87357     11.69450         0.360344      0.089250     -0.257004
O      11.70481      9.68953      2.60472        -0.183179      0.480306      0.012875
O      11.69191      9.64396     15.86245         0.180037      0.076054     -0.029755
O      11.64225      9.81052      7.04392         0.527781     -0.531503      0.024464
O      11.61792      9.77209     11.51924         0.119143      0.026050     -0.483704
O       1.90845      3.84939      2.86079        -0.198533     -0.200381     -0.471115
O       2.06818      3.88111     15.94045        -0.315824     -0.357277      0.378132
O       1.90134     15.44959      2.77049         0.129403      1.204731     -0.306504
O       1.87979     15.53726     16.13717        -0.272773      0.257927     -0.513889
O      13.57099      3.82784      2.89459         0.103010      0.401707     -0.364689
O      13.65243      3.88388     16.17411         0.436352      0.010332     -0.582762
O      13.57223     15.48801      3.04536        -0.013307      0.423317     -1.109668
O      13.65056     15.58848     15.84741        -0.086027     -0.255262      0.068696
O       1.93393      3.93571      7.31575        -0.046688      0.161908     -0.403818
O       2.03722     15.54738      7.17288        -0.385426      0.829531     -0.157670
O      13.61395      3.99768      7.28956        -0.226352     -0.970310     -0.877527
O      13.69047     15.59834      7.26528        -0.204160      0.202331     -0.664442
O       1.93670      3.81673     11.75244        -0.078871      0.056118     -0.351542
O       1.86704      0.04553     11.67001         0.014625     -0.329820     -0.554816
O      13.68670      3.86185     11.65756        -0.242311      0.163138     -0.772674
O      13.61451     15.55363     11.60362        -0.167896      0.771077     -0.326713
O       1.95670      7.78278      2.94665        -0.097538      0.626701     -0.559975
O       1.99285      7.74928     16.14829         0.173252      0.835425     -0.766320
O      13.51668      7.85930      2.71325         0.284287     -0.635937     -0.077194
O      13.73136      7.73200     15.88508        -0.134169      0.071255     -0.104444
O       1.87319      7.85329      7.46091        -0.065296     -0.561066     -0.808200
O      13.67185      7.71291      7.29513        -0.534239      0.756713     -0.360236
O       1.96750      7.84413     11.66676         0.035779      0.087010     -0.700814
O      13.62503      7.79683     11.61995         0.145084     -0.103241     -0.646759
O       1.86585     11.63568      2.79219         0.098911     -0.304960     -0.287511
O       1.88156     11.67708     15.97540         0.310646     -0.113403     -0.147656
O      13.55932     11.65499      2.57108         0.102641     -0.257401     -0.190016
O      13.65218     11.60065     15.95097         0.010191      0.524374     -0.556816
O       1.82019     11.71027      7.18209         0.304262     -0.517601     -0.048589
O      13.67580     11.71721      7.17680        -0.040955     -0.256584     -0.217425
O       1.89723     11.80800     11.80364        -0.337507     -0.853669     -0.615554
O      13.60941     11.66261     11.62994        -0.065977      0.133404     -0.196113
O       5.81728      3.84923      2.92189        -0.050197      0.183125     -0.093465
O       5.75373      3.96242     16.07029         0.266824     -1.169197     -0.169625
O       5.71718     15.58928      2.92088         0.232662     -0.769318     -0.644813
O       5.92635     15.50531     16.09377        -0.170691      0.909703     -0.471255
O       5.81404      3.96537      7.25102         0.084294     -0.288176     -0.588701
O       5.66474     15.59786      7.23437         0.497160     -0.183178     -0.306873
O       5.87105      3.80940     11.79128        -0.320786      0.084245     -0.653314
O       5.81863     15.57476     11.67226         0.310453      0.712171     -0.232310
O       5.85880      7.78107      3.01363        -0.336086      0.038522     -0.327854
O       5.89601      7.79050     15.99845         0.046968      0.653888     -0.364147
O       5.78006      7.84731      7.38926         0.573373     -0.091639     -0.622201
O       5.78515      7.80010     11.61351         0.060201     -0.024092     -0.364988
O       5.85005     11.67371      2.87223        -0.171475     -0.115158     -0.427318
O       5.83609     11.69025     16.09326        -0.144268     -0.258739     -0.247576
O       5.82817     11.63332      7.31031         0.124195      0.303868     -0.456769
O       5.74002     11.72613     11.55772         0.588187      0.472528     -0.086887
O       9.67036      3.74851      2.93097         0.315937      0.341962     -0.272795
O       9.79190      3.83757     16.12691        -0.223279      0.328986     -0.362341
O       9.64679     15.47228      2.91172         0.182400      0.135111     -0.623042
O       9.55114     15.56157     16.05553         0.781468     -0.305035     -0.477874
O       9.72676      3.88981      7.24118        -0.302405     -0.061996     -0.787643
O       9.77558     15.56244      7.30387        -0.074981      0.268535     -0.659086
O       9.93613      3.97444     11.67331        -0.518136     -0.863273     -0.797374
O       9.72797      0.08357     11.66325        -0.075600     -0.533043     -0.358321
O       9.72873      7.75659      2.74662         0.198058     -0.085490     -0.024171
O       9.71320      7.76695     16.13674         0.133358     -0.393775     -0.647147
O       9.66094      7.82137      7.23096         0.255343     -0.401348     -0.426100
O       9.75551      7.83444     11.58377         0.065868      0.258216     -0.612198
O       9.65643     11.64480      2.89413         0.246059      0.102235     -0.736788
O       9.79217     11.61035     16.06347         0.063034      0.717096     -0.421764
O       9.62834     11.69205      7.24649         0.227050      0.344031     -0.441657
O       9.58601     11.78789     11.54591         0.776038     -0.626697     -0.402255
