  # total energy = -7879.86266399 
CRSYTAL
PRIMVEC
    15.6000000000000000    0.0000000000000000    0.0000000000000000
     0.0000000000000000   15.6000000000000000    0.0000000000000000
     0.0000000000000000    0.0000000000000000    17.640000000000000
PRESSURE
-5.34863 -5.19446 -1.08624 -0.170026 0.459935 -0.042569
PRIMCOORD
320 1
Pb       3.80518      3.90805      4.31697         0.461573      0.180393      0.235669
Pb       3.86949      3.84653     17.54410        -0.230632      0.012276     -0.268231
Pb       3.96767      0.10281      4.34950         0.107855     -0.563858     -0.523435
Pb       3.90108     15.51438     17.53680        -0.186097      0.115246     -0.172278
Pb      15.58104      3.84654      4.38057        -0.104286      0.290317     -0.353911
Pb      15.51152      3.92502     17.59551         0.026542     -0.521757     -0.617885
Pb      15.57617      0.02833      4.44169         0.403242      0.065255     -1.066281
Pb       0.05523     15.51589     17.52218        -0.382580      0.505524     -0.848185
Pb       3.94819      3.81519      8.73879        -0.333155      0.670204     -0.130315
Pb       3.90738     15.52605      8.73724         0.322581     -0.111223     -0.258317
Pb      15.53783      3.88205      8.76559         0.374824      0.505741     -0.272750
Pb       0.02101     15.39971      8.80710         0.462013      0.397127      0.089221
Pb       3.83571      3.90739     13.25973        -0.225218     -0.372076     -0.548173
Pb       3.77955     15.51980     13.13848         0.025120      0.384992      0.163606
Pb      15.49456      3.85928     13.06051         0.199244      0.099865     -0.013113
Pb      15.57234     15.57255     13.12761        -0.247327      0.058538     -0.134192
Pb       3.85606      7.73439      4.46389        -0.320212     -0.115806     -0.809867
Pb       3.80635      7.69801      0.00620        -0.120780      0.275517     -0.655083
Pb      15.51682      7.88879      4.36310         0.332900     -0.409124     -0.291959
Pb      15.55739      7.73004     17.61403         0.368552     -0.011881     -0.356461
Pb       3.96277      7.75114      8.69155        -0.594029     -0.544834      0.074965
Pb      15.53542      7.67411      8.79809         0.230706     -0.105449     -0.178056
Pb       3.82106      7.67094     13.18332        -0.160485      0.281543     -0.298565
Pb      15.59963      7.78292     13.21592        -0.542689      0.072451     -0.522957
Pb       3.89273     11.73306      4.37847        -0.281883      0.336808     -0.178029
Pb       3.85981     11.69791      0.04583         0.190718     -0.383717     -1.043592
Pb      15.53514     11.71618      4.42810         0.450023     -0.350142     -0.537242
Pb      15.55136     11.70996     17.62135        -0.087094     -0.044499     -0.655208
Pb       3.83120     11.59915      8.75754         0.034318      0.418647     -0.705639
Pb      15.53417     11.72937      8.77182         0.770164     -0.719484     -0.141515
Pb       3.86842     11.73680     13.16846        -0.247193     -0.496378      0.000930
Pb      15.54134     11.65547     13.09433         0.237740     -0.586101     -0.142361
Pb       7.70023      3.96476      4.34344         0.481841      0.388760     -0.121206
Pb       7.71903      3.85506     17.53078         0.259274      0.412796      0.131722
Pb       7.80534      0.13879      4.33785         0.235422     -0.573773     -0.612040
Pb       7.86275      0.02835     17.52164        -0.083148     -0.110552      0.030908
Pb       7.73889      3.81889      8.84551         0.456198     -0.113528     -0.665952
Pb       7.73550     15.49683      8.85216         0.305254      0.230790     -0.756810
Pb       7.71714      3.93049     13.15375         0.383424     -0.334286      0.301053
Pb       7.74341     15.52170     13.21682        -0.273046     -0.009630     -0.773208
Pb       7.73653      8.00948      4.35615         0.400856     -1.180997     -0.101819
Pb       7.75533      7.81618      0.08256         0.284151      0.061458     -0.803482
Pb       7.76154      7.76905      8.76221         0.255078     -0.051634     -0.696011
Pb       7.59686      7.76438     13.15515         0.624485      0.054600      0.297045
Pb       7.81768     11.81410      4.37124         0.470094      0.348877     -0.313029
Pb       7.74483     11.64481      0.02152         0.126015     -0.098553     -0.570613
Pb       7.72031     11.68516      8.83159         0.156590      0.332508     -1.018737
Pb       7.86772     11.57945     13.24776        -0.037837      0.266787     -0.672094
Pb      11.58749      3.95604      4.38187         0.384666      0.422438     -0.390496
Pb      11.73536      3.91267     17.57898         0.197484      0.017868     -0.476130
Pb      11.74073      0.14424      4.45296        -0.788676     -0.083732     -0.988250
Pb      11.64170     15.58052     17.57566         0.510754     -0.062710     -0.562271
Pb      11.66437      3.85295      8.77441         0.087517     -0.022769     -0.002196
Pb      11.74451     15.59453      8.89295        -0.298355      0.244281     -0.648129
Pb      11.55066      3.86439     13.22057         0.357237      0.234214     -0.658001
Pb      11.67469     15.45662     13.12460         0.588880     -0.125946     -0.295732
Pb      11.60135      7.82955      4.42205         0.075158     -0.121842     -0.845997
Pb      11.50204      7.83988     17.63318        -0.141282     -0.231840     -0.448704
Pb      11.67128      7.75293      8.71977         0.531922      0.383481      0.402215
Pb      11.58075      7.77542     13.19793         0.671790     -0.205299     -0.565140
Pb      11.73332     11.91112      4.33511        -0.440033     -0.840628     -0.156357
Pb      11.79342     11.67560     17.57516        -0.223839      0.572987     -0.347004
Pb      11.72804     11.57960      8.70023        -0.228697     -0.324270      0.109043
Pb      11.70603     11.64949     13.09196         0.126512      0.177144     -0.281234
Ti       1.97520      1.98043      2.32579        -0.261268     -0.198454      1.517757
Ti       1.89561      1.89818     15.50125        -0.316953      0.397719      1.453284
Ti       1.95479     13.80089      2.20668         0.526527     -0.718809      0.841280
Ti       1.96286     13.54283     15.59730        -0.175137      0.646579      2.596404
Ti      13.65515      1.87860      2.33182        -0.380968      0.649296      0.393764
Ti      13.60309      1.92783     15.53582         0.795898     -0.359080      2.123380
Ti      13.66848     13.62207      2.28473        -0.060423      0.397595     -1.372248
Ti      13.66984     13.64606     15.43338        -0.014366      0.263685      0.626605
Ti       2.01567      1.92155      6.83157        -0.061592      0.595978     -0.367245
Ti       2.05626     13.66198      6.69746         0.557655     -1.592324      1.005957
Ti      13.76775      1.78791      6.78119        -0.552641      1.438977      0.628065
Ti      13.74897     13.60682      6.78432        -0.232921     -0.786228     -0.175340
Ti       2.00330      1.91639     11.10013        -0.500041      0.339791      1.542438
Ti       1.90576     13.54591     11.11734        -0.006765     -0.021280      1.163537
Ti      13.67135      1.92682     11.09134         0.129269     -0.173634      0.950034
Ti      13.69029     13.58274     11.06785        -0.551769      0.358301      2.196951
Ti       1.96365      5.86137      2.31595        -0.068635      0.248924      1.306689
Ti       1.95433      5.75208     15.50993         0.054467      0.099198      1.702579
Ti      13.75483      5.78339      2.39427        -0.740405      0.298924      0.979034
Ti      13.62496      5.89464     15.58071        -0.554348     -0.203405     -0.304190
Ti       1.97137      5.80169      6.67477        -0.169167      0.069264      1.718490
Ti      13.59459      5.74185      6.78400         0.844692      0.586604      1.829779
Ti       1.92342      5.76346     11.20106        -0.538722      0.057234      0.360505
Ti      13.59142      5.83268     11.06535         0.481172      0.133270      1.260336
Ti       2.01110      9.80599      2.34791        -0.452898     -0.413627      0.572296
Ti       1.89129      9.70048     15.63823         1.061674      0.170103     -0.466831
Ti      13.70432      9.77099      2.39282        -0.739415     -0.768737      0.624460
Ti      13.58451      9.69913     15.74691         1.184958      0.345350     -1.223782
Ti       1.98149      9.63500      6.71284        -0.631331      0.395321      0.797986
Ti      13.72089      9.73315      6.80062        -0.290729     -1.190382     -0.650124
Ti       2.06448      9.60078     11.14427        -1.941483      0.624927      2.903698
Ti      13.64678      9.70896     11.08031         0.427248     -0.325600      1.090296
Ti       5.84849      2.02008      2.36938         0.547094     -0.284059      0.450400
Ti       5.74467      1.96692     15.59646         0.102031     -0.287970     -0.463566
Ti       5.84121     13.60080      2.28678         0.349519      1.217305      3.679364
Ti       5.94139     13.62935     15.58735        -0.699916     -0.764289      0.683650
Ti       5.88000      1.94094      6.79656         0.569557      0.027811     -0.416334
Ti       5.94086     13.64179      6.69153        -0.068076      0.049984      0.352443
Ti       5.85099      1.99316     11.22508        -0.059231     -0.868715      0.971579
Ti       5.80819     13.63987     11.15706         0.456353     -0.022558      1.729958
Ti       5.82298      5.84484      2.27897         0.676579      0.249223      0.776965
Ti       5.79209      5.88252     15.62157         0.658464     -0.133499      0.909751
Ti       5.87117      5.82493      6.69955        -0.311907     -0.371020      1.039227
Ti       5.88903      5.82110     11.08209        -1.111165     -0.221360      0.965826
Ti       5.85671      9.80230      2.44742         0.281664     -0.472102      0.265048
Ti       5.89691      9.67899     15.61893        -1.279693      0.739131     -0.088818
Ti       5.83784      9.74007      6.74481         0.305276      0.477232      0.762259
Ti       5.88388      9.71223     11.14317        -0.275304      0.403906      3.265439
Ti       9.79293      2.09401      2.32941        -0.069540     -0.662670      0.911260
Ti       9.70173      1.96550     15.52345         0.686583      0.285892      2.186614
Ti       9.76607     13.70418      2.29112        -0.335788     -0.179180      1.250197
Ti       9.75387     13.62804     15.51780         1.053823     -0.645363     -0.005162
Ti       9.83102      1.95042      6.83053        -1.025567     -0.310449      1.149360
Ti       9.93934     13.63180      6.80126        -1.606760     -0.070203      0.015908
Ti       9.80263      1.80852     11.19115        -0.426291      0.590571     -1.148693
Ti       9.71285     13.57427     11.03142         0.124015     -0.092970      2.913909
Ti       9.80113      5.87062      2.21198        -0.477919      0.107890      0.816012
Ti       9.65360      5.77216     15.56636         0.628665      1.054269      1.559628
Ti       9.73567      5.84349      6.86574        -0.311454     -0.589312     -0.099832
Ti       9.69264      5.80669     11.08692         1.378467     -0.272832      1.710338
Ti       9.74851      9.76074      2.34652         0.620968      0.434749      0.209429
Ti       9.73012      9.79506     15.49694        -0.639028     -0.766331      0.466456
Ti       9.74126      9.73853      6.72744         0.651516      0.087656      0.723154
Ti       9.72630      9.64313     11.11014         1.205127      0.308090      1.285621
O       1.99442      1.98119      0.64563        -0.069889      0.066674     -0.990741
O       1.92168      2.04175     13.80236         0.171355     -0.358681     -1.692031
O       1.93519     13.72044      0.43737        -0.048504      0.064308      0.638424
O       2.05261     13.53726     13.92227         0.263598     -0.097543     -2.317489
O      13.72265      2.03480      0.61694        -0.133971     -0.130693     -0.124693
O      13.52953      1.83031     13.85248         0.162483      0.279863     -1.796415
O      13.62821     13.55795      0.47713         0.165873     -0.081950      1.489137
O      13.60480     13.64748     13.66397         0.057327     -0.032038      0.501344
O       1.99956      1.96841      5.07503        -0.026980     -0.490305      0.049257
O       2.11944     13.60814      4.97841        -0.620038      0.417780     -0.594767
O      13.60974      1.80378      5.01802         0.427915     -0.313002      0.359322
O      13.72959     13.50449      5.00558         0.188208      0.686720      0.054251
O       2.17308      1.91872      9.36940        -0.478758     -0.121233     -0.677466
O       1.90893     13.60803      9.38775         0.279938     -0.066691     -0.518881
O      13.72420      1.81090      9.34088        -0.193716     -0.092782     -0.086133
O      13.83323     13.56747      9.33193        -0.229293      0.174642     -1.108507
O       2.09090      5.85279      0.57255        -0.322068     -0.118991     -0.150600
O       1.97982      5.76945     13.78050         0.021540      0.200518     -0.718167
O      13.83312      5.65399      0.66629        -0.225838      0.298185     -0.647848
O      13.63909      6.12022     13.82098        -0.002738     -0.623360      0.914610
O       2.05473      5.89732      4.96497         0.069213     -0.241310     -0.899754
O      13.56287      5.79871      5.09018         0.003551     -0.003506     -1.141207
O       1.85752      5.82801      9.49031        -0.004138     -0.046390     -1.095908
O      13.80520      5.81412      9.32026        -0.345324     -0.221322     -0.037453
O       1.99153      9.72639      0.59153        -0.031642      0.142313      0.366908
O       1.85465      9.77486     13.87757         0.242943     -0.152598     -0.106359
O      13.67080     10.05033      0.67269         0.133204     -0.643555     -1.114522
O      13.56512      9.60131     14.02486         0.184723      0.126540     -0.679161
O       2.05087      9.59370      4.96242        -0.125208      0.112121      0.305547
O      13.78193      9.62471      5.00940        -0.178036      0.180055      0.375122
O       1.97735      9.47177      9.49636         0.308006      0.230791     -2.803950
O      13.63525      9.81787      9.36054        -0.042559     -0.059544     -1.118698
O       5.94063      2.32701      0.68059        -0.228237     -0.924884     -0.940841
O       5.76682      1.95715     13.85063         0.045744     -0.010541      0.003712
O       5.96549     13.46337      0.63396         0.082444     -0.138047     -2.658781
O       5.95139     13.67607     13.83661        -0.332841     -0.190253      0.424637
O       5.91548      1.98961      5.01704        -0.068176     -0.516679      0.289618
O       5.93259     13.79354      4.94575         0.079254     -0.265445      0.007861
O       5.88552      1.95329      9.46581        -0.229560      0.022903      0.236864
O       5.79802     13.67465      9.44350         0.042363      0.014736     -0.710054
O       5.78548      5.82558      0.53199        -0.049478     -0.214240     -0.129160
O       5.90344      5.85725     13.88100        -0.327453      0.344940     -0.579420
O       5.85543      5.74284      4.97045         0.073147      0.336536     -0.152563
O       5.90409      5.76186      9.35903         0.201303      0.088897     -0.285302
O       6.01209      9.91037      0.72540        -0.218265     -0.071907     -0.343893
O       5.90372      9.61033     13.84329         0.355728      0.058055     -0.375575
O       5.90465      9.71997      5.03120        -0.198667     -0.061580     -1.002524
O       5.83319      9.77926      9.50176        -0.096962     -0.009109     -3.335687
O       9.78939      2.00012      0.60408        -0.116847     -0.055140     -0.528805
O       9.73086      2.09786     13.83874         0.113148     -0.644349     -1.478568
O       9.79430     13.70322      0.55730        -0.033898      0.201883     -0.516499
O       9.85806     13.63057     13.76231        -0.544598      0.097759      0.393647
O       9.79478      1.87689      5.10357         0.221083      0.301153     -0.470093
O       9.85473     13.50298      5.04865         0.300331      0.246671      0.098618
O       9.71154      1.79863      9.36798         0.475763      0.026198      1.409523
O       9.63932     13.63094      9.33509         0.326620     -0.170401     -1.398156
O       9.95549      5.80460      0.43156        -0.415085      0.345808      0.471873
O       9.74803      5.81895     13.85305        -0.118444      0.007920     -1.175855
O       9.68585      5.71712      5.13427         0.488190      0.483033      0.009703
O       9.77582      5.79975      9.38499        -0.493180     -0.033835     -1.155319
O       9.73177      9.65886      0.58836         0.026438      0.279658      0.068536
O       9.53053      9.74306     13.71655         0.626132     -0.170580      0.383324
O       9.87949      9.59204      4.97922        -0.535063      0.205562      0.314815
O       9.90115      9.74079      9.40937        -0.543044      0.066507     -0.711143
O       3.92261      1.91350      2.76703         0.007874      0.363980     -0.003566
O       3.89422      1.81049     16.07146         0.970515      1.122641     -0.146175
O       3.90509     13.65962      2.63817        -0.111641     -0.094164      0.048713
O       3.90329     13.51610     16.24122         1.013344      0.759973     -1.105089
O      15.53405      1.80137      2.81531         0.782577      0.404750      0.289081
O       0.04730      1.97590     15.98411        -0.522217     -0.301431      0.046019
O       0.06169     13.74520      2.51619        -0.319920     -0.399647      0.856658
O       0.01462     13.82190     15.80508         0.468833     -0.633835      0.464440
O       3.95560      1.95564      7.14792        -0.137840     -0.691527      0.353703
O       4.03567     13.58402      7.03935        -1.669250      0.009032      0.722641
O       0.10966      1.85262      7.11447        -0.887483     -0.002742      0.125439
O       0.12127     13.57907      7.30719        -1.112234      0.263409     -0.957361
O       3.81990      2.04758     11.61478         0.613315     -0.254603     -0.043429
O       3.79886     13.59451     11.66731         1.072298      0.115216     -0.426712
O      15.57862      1.96087     11.63749        -0.279224     -0.416331     -0.581731
O      15.57800     13.61200     11.57004         0.594079     -0.206945     -0.057661
O       3.89694      5.93053      2.81146         0.463607     -0.503861     -0.250030
O       3.88577      5.89650     16.02079         0.127026     -0.397757     -0.255883
O       0.02509      5.76801      2.89359         0.211506     -0.283971     -0.280488
O       0.11345      5.90092     16.07160        -0.756397     -0.289201     -0.320536
O       3.96894      5.87513      7.20687         0.042962     -0.342197     -0.297921
O       0.02559      5.68327      7.12295        -0.026678      0.584792     -0.032732
O       3.83942      5.75648     11.46842         1.278585      0.148912      0.647196
O      15.54802      5.78000     11.59604        -0.739470      0.252108      0.192527
O       3.96859      9.71689      2.87638        -0.211271     -0.224926     -0.451449
O       3.97338      9.83611     15.92464        -0.168208     -0.432746      0.618946
O      15.59835      9.79810      2.85047         1.136828     -0.432212     -0.160735
O       0.04950      9.72732     15.99434        -0.832444     -0.265239      0.945433
O       3.89626      9.73015      7.31544        -0.031393      0.045390     -0.594722
O      15.59565      9.57969      7.24132         0.628125      0.403924     -0.416346
O       3.88164      9.73734     11.63527         1.263062     -0.259609     -0.067645
O      15.59244      9.82839     11.49285        -0.299667     -0.499229      0.436556
O       7.86502      2.06926      2.80203        -0.376884     -0.346062     -0.082379
O       7.84101      1.94041     16.03985        -0.425910     -0.037888     -0.176372
O       7.85102     13.61319      2.78154         0.059306      0.195070     -0.088955
O       7.84020     13.56245     16.00584        -0.211310      0.660007     -0.202469
O       7.81322      2.02078      7.33063        -0.285414     -0.716801     -0.542519
O       7.79065     13.57431      7.21995         0.562955     -0.002030      0.154656
O       7.77867      1.85239     11.66652        -0.112246      0.200862     -0.226220
O       7.79161     13.70488     11.57640        -0.164082     -0.026841     -0.265849
O       7.88359      5.61435      2.66112        -0.729459      0.767484     -0.393515
O       7.76895      5.87709     16.06006         0.021988     -0.165615     -0.197837
O       7.82285      5.80331      7.23776        -0.739583      0.489793      0.152808
O       7.79176      5.87118     11.68557        -0.169199     -0.738431     -0.905765
O       7.85759      9.70483      2.87008        -0.642070      0.812480     -0.052183
O       7.83962      9.75112     16.05050        -0.014999     -0.126029      0.029648
O       7.80125      9.65846      7.13540        -0.038407      0.232918      0.303559
O       7.83032      9.66245     11.46193        -0.522703     -0.000099      0.140701
O      11.68696      1.87401      2.78075         0.375247      0.495642      0.251511
O      11.76901      1.99053     16.06299        -1.465812     -0.232063     -0.138086
O      11.74789     13.51266      2.66194         0.103671      0.057941      0.201331
O      11.75636     13.56089     15.90968        -0.617383      0.513765      0.177244
O      11.73478      1.91875      7.26408         0.245239     -0.563879     -0.140715
O      11.82405     13.59044      7.24970        -0.005494      0.209311     -0.224082
O      11.72707      1.85386     11.57722        -0.352441     -0.397213     -0.319938
O      11.76201     13.64342     11.53343        -0.737459      0.040974     -0.617803
O      11.65228      5.89084      2.87344         0.743518      0.010687     -0.256298
O      11.74796      5.75661     15.91643        -0.069001      0.387836      0.196374
O      11.70567      5.81829      7.32573        -0.077540     -0.444350     -0.491658
O      11.66343      5.72948     11.52360         0.089788      0.512813      0.085029
O      11.66317      9.70207      2.75207         0.877141     -0.083966      0.109912
O      11.73578      9.76206     16.03526        -1.129624      0.183566      0.263030
O      11.73262      9.76992      7.20627         0.001265     -0.360645     -0.208825
O      11.74237      9.69238     11.59613        -0.655286      0.138766      0.147748
O       1.93155      3.91131      2.88212         0.087551     -0.742529     -0.562547
O       2.05521      3.79638     15.89319         0.221051      1.663897      0.398397
O       2.02640      0.03752      2.78953        -0.280629     -0.147746     -0.090882
O       2.10050      0.08281     15.98975        -0.538063     -1.785664      0.178681
O      13.62715      3.88956      2.85958         0.124288     -0.689202      0.139339
O      13.68721      3.87921     16.07113         0.338206      0.730229     -0.472685
O      13.55013     15.51502      2.62032         0.302737      0.071550      0.604073
O      13.72754      0.00082     15.97417        -0.679461     -0.162743      0.122874
O       2.05755      3.92785      7.15487        -0.016812     -1.177514      0.116020
O       1.98477     15.46355      7.20931         0.303991      1.381126     -0.116479
O      13.68757      3.78220      7.26125        -0.164918     -0.230590     -0.398899
O      13.76844     15.48881      7.22679        -0.256772      0.589268     -0.294488
O       1.79405      3.87934     11.62411         0.592838     -0.812586     -0.192625
O       1.89648     15.54307     11.60857         0.255587      0.470239     -0.391143
O      13.57705      3.87368     11.45096         0.301693     -0.625501      0.102132
O      13.70360     15.51706     11.61946        -0.143403      0.599542     -0.670915
O       1.96718      7.69448      2.73016        -0.165622      1.360253      0.085551
O       2.05044      7.77066     15.97118        -0.202767     -0.005287      0.139787
O      13.86339      7.71267      2.67413        -0.722455      0.953033      0.101676
O      13.60760      7.77703     16.16392         0.469305     -0.214009      0.366179
O       2.07694      7.69637      7.13510        -0.362788      0.722733      0.074179
O      13.62575      7.74782      7.27760         0.056392     -0.170055     -0.423488
O       1.83810      7.69745     11.68387         0.799456      0.821615      0.107007
O      13.61211      7.77514     11.51041         0.219471     -0.024003     -0.212473
O       2.05942     11.65432      2.82482        -0.406510      0.357701     -0.568892
O       1.96857     11.69449     16.04085        -0.380093     -0.180626      0.252191
O      13.79210     11.60679      2.82882        -0.468111      1.701456      0.285893
O      13.79776     11.75738     15.95670        -0.277651     -0.489686      0.242002
O       1.85694     11.60949      7.10136         0.762809     -0.298304      0.265464
O      13.69584     11.65807      7.02399         0.449172      0.219324      0.720060
O       1.98532     11.66352     11.52104        -0.104817     -0.011848      0.123234
O      13.63322     11.69377     11.53603        -0.052642     -0.245118      0.049524
O       5.78646      3.94486      2.80558        -0.117908     -0.396305      0.183515
O       5.80719      3.88846     15.90759         0.044333      0.099305      0.448663
O       5.92982     15.55411      2.65222        -0.089231      1.157838      0.158224
O       5.86909      0.01239     16.05755         0.368476     -0.906547      0.003826
O       5.78432      3.87671      7.17683         0.607815     -0.088211      0.114344
O       5.85887     15.53945      7.28127         0.124850      0.911424     -0.278218
O       5.86369      3.87817     11.71874        -0.005456      0.231628     -0.722244
O       5.68073      0.00621     11.77583         0.701680      0.007879     -0.908462
O       6.04717      7.76658      2.63493        -0.474744      0.152889      0.420081
O       5.86247      7.76644     16.11672         0.065784      0.423445     -0.045894
O       5.79918      7.81665      7.10272         0.507500     -0.292788      0.277336
O       5.82912      7.69412     11.46827        -0.010040      0.734686      0.271714
O       5.84741     11.74038      3.01362         0.246407     -0.637390     -0.858582
O       5.92542     11.61451     16.05695         0.176502      1.105975     -0.187366
O       5.84009     11.70160      7.20947         0.178496     -0.974680      0.112115
O       6.01666     11.74644     11.51431        -0.862698     -0.852605      0.193509
O       9.85997      4.00600      2.79960         0.164821     -1.552037     -0.287166
O       9.72391      3.92707     15.90075         0.080452     -0.962111      0.295168
O       9.84154      0.02641      2.86034        -0.390344     -0.323163     -0.355159
O       9.77547     15.58289     15.98133        -0.072955      0.132539     -0.138345
O       9.72599      3.90115      7.29672         0.530925     -0.581103     -0.048006
O       9.80688     15.50123      7.09739         0.096789      0.624692      0.496455
O       9.86133      3.77660     11.59098        -1.049352      0.274317     -0.243681
O       9.68624     15.47227     11.50147         0.631643      0.926767      0.290753
O       9.72363      7.76326      2.69161        -0.131447      0.032650      0.217657
O       9.72514      7.87023     16.02186         0.547397     -0.509289     -0.079896
O       9.81169      7.80786      7.32547        -0.493327     -0.116761     -0.578582
O       9.78915      7.68185     11.46707        -0.199838      0.811371      0.113900
O       9.68393     11.71589      2.72323         0.421967     -0.258755      0.097241
O       9.77011     11.66884     15.81001         0.010460      0.299695      0.356670
O       9.81402     11.63598      7.18295        -0.255767     -0.010343      0.110315
O       9.82480     11.67047     11.58441        -0.695304     -0.053757     -0.332758
