  # total energy = -7881.69219584 
CRSYTAL
PRIMVEC
    15.3600000000000000    0.0000000000000000    0.0000000000000000
     0.0000000000000000   15.3600000000000000    0.0000000000000000
     0.0000000000000000    0.0000000000000000    17.440000000000000
PRESSURE
0.307524 0.826788 1.02981 -0.010957 -0.219642 0.003459
PRIMCOORD
320 1
Pb       3.92985      3.80600      4.40062        -0.312920      0.063830     -0.899077
Pb       3.89839      3.81190      0.02798         0.231691     -0.005300     -0.305114
Pb       3.76785      0.02792      4.34356         0.367047     -0.053357     -0.323470
Pb       3.76883     15.29084     17.35517        -0.270786      0.333102     -0.439079
Pb       0.08419      3.78579      4.37120        -0.469663     -0.079056     -0.786765
Pb       0.06867      3.89105      0.01110        -0.676784     -0.245090     -0.308668
Pb       0.10897      0.03703      4.36675        -0.624779      0.055066     -0.417107
Pb      15.23563      0.05623     17.37489         0.182360     -0.158517     -0.281531
Pb       3.74985      3.78781      8.71121         0.022965      0.349397     -0.512687
Pb       3.78508     15.32333      8.63722         0.230737     -0.058864     -0.463589
Pb      15.10475      3.96440      8.64148         0.351565      0.216788      0.118949
Pb      15.21775     15.29982      8.73830         0.447185     -0.189509     -0.155785
Pb       3.90522      3.63630     13.07900        -0.506348      0.740957     -0.673380
Pb       3.77442      0.01267     12.93435        -0.435406     -0.374532     -0.058312
Pb       0.03151      3.78238     13.02768         0.112623     -0.114838      0.141237
Pb      15.28816     15.22199     13.06817         0.180490      0.273401     -0.472240
Pb       3.83926      7.67311      4.32199         0.228536      0.094462      0.045535
Pb       3.81178      7.62052      0.01999         0.282676      0.166287     -0.482050
Pb       0.14512      7.79580      4.30617        -0.223880     -0.494727      0.148550
Pb      15.31792      7.70173      0.04624        -0.558431     -0.129196     -0.533434
Pb       3.77639      7.71181      8.62619         0.172738      0.031064     -0.219272
Pb      15.30315      7.62570      8.64027        -0.078172      0.094881     -0.071296
Pb       3.88598      7.55884     13.04833        -0.531403      0.363662     -0.454875
Pb      15.32982      7.65091     13.09099         0.109802      0.312804     -0.311334
Pb       3.81133     11.56014      4.27768         0.106757     -0.318154      0.143770
Pb       3.94201     11.60826     17.42042        -0.618494     -0.621837     -0.475124
Pb       0.10909     11.55641      4.32389        -0.877347     -0.356635      0.224273
Pb      15.25693     11.51238     17.36671        -0.291372      0.078365     -0.381245
Pb       3.87001     11.49105      8.64646        -0.112591     -0.317896     -0.033003
Pb      15.35942     11.47115      8.72904        -0.640713     -0.263451     -0.411647
Pb       3.92664     11.39809     13.07421        -0.726614     -0.037277     -0.283077
Pb       0.18902     11.51462     13.02576        -0.996527     -0.243347     -0.149562
Pb       7.67822      3.78571      4.24541         0.088540      0.231379     -0.344244
Pb       7.70280      3.83623      0.04580        -0.214045     -0.164100     -0.108654
Pb       7.66782     15.33809      4.42404        -0.099397     -0.312258     -0.622633
Pb       7.51304      0.03698     17.32880         0.480168      0.106050      0.352463
Pb       7.51657      3.90811      8.73080         0.203728     -0.436832     -0.572821
Pb       7.66715     15.34121      8.78726        -0.324389     -0.070396     -0.738544
Pb       7.86779      3.90628     13.02299        -0.497411     -0.196887     -0.057065
Pb       7.69644      0.10414     12.98211         0.245832     -0.072686     -0.191100
Pb       7.73408      7.56171      4.33165        -0.051317      0.096626      0.000619
Pb       7.58369      7.75724      0.01929        -0.131477      0.165470     -0.627879
Pb       7.73356      7.61485      8.72225        -0.091124      0.471097     -1.000003
Pb       7.70311      7.72765     13.08605        -0.469933     -0.138199     -0.078035
Pb       7.64118     11.45351      4.35473        -0.015275      0.200070     -0.634293
Pb       7.67419     11.60323     17.31631         0.191201     -0.695953     -0.419237
Pb       7.63640     11.59673      8.64484         0.464876     -0.400108     -0.384679
Pb       7.79039     11.57575     12.94253        -0.504882     -0.766587      0.893005
Pb      11.45805      3.75876      4.30181         0.331743     -0.204016     -0.207190
Pb      11.70006      3.90039      0.16141        -0.442496     -0.353663     -1.162733
Pb      11.62362     15.29120      4.38370        -0.058147     -0.364145     -0.919763
Pb      11.23762     15.25552      0.04033         0.828823      0.124764     -0.081493
Pb      11.45952      3.86742      8.64932         0.174415      0.362433     -0.166471
Pb      11.47081      0.05463      8.76543         0.043690     -0.540036     -0.774933
Pb      11.54873      3.72312     13.01781        -0.059236      0.636472      0.144403
Pb      11.49041     15.29521     13.09621        -0.057442     -0.114882     -0.400046
Pb      11.57605      7.53335      4.37248        -0.820491      0.271585     -0.134642
Pb      11.46040      7.71666     17.42657         0.298020      0.038601     -0.759600
Pb      11.60564      7.72175      8.67362        -0.566458     -0.328883      0.202671
Pb      11.34403      7.57841     13.15625         0.706657      0.183936     -0.698903
Pb      11.53220     11.43493      4.27231        -0.006686      0.973743     -0.662823
Pb      11.39995     11.44720     17.36012         0.326533      0.000017     -0.114338
Pb      11.51423     11.41812      8.63422        -0.046577      0.165649      0.362358
Pb      11.56983     11.48995     13.04533         0.399980     -0.376781     -0.424303
Ti       1.90587      1.93223      2.22078         0.122605     -0.291793      1.235227
Ti       1.92010      1.96435     15.33712        -1.277420     -0.780715      0.673897
Ti       1.87897     13.46656      2.26621         0.015008     -0.286408      2.224389
Ti       1.81424     13.40550     15.31961        -0.230130      0.002930      1.735734
Ti      13.44934      1.84973      2.30007         0.077770      0.092723      0.966572
Ti      13.36863      1.90195     15.35621         0.711529     -0.201267      1.476204
Ti      13.51321     13.36916      2.29257        -1.756780      0.321344     -0.408271
Ti      13.31053     13.43062     15.37929         0.726007      0.116996      0.362178
Ti       1.83051      1.88994      6.72009         0.238687      0.164328      0.300613
Ti       1.92170     13.39661      6.72971        -0.403895     -0.224912      0.569554
Ti      13.41261      1.89139      6.63804        -0.489735      0.198058     -0.779608
Ti      13.41568     13.47332      6.62808         0.043417     -1.592999     -0.187775
Ti       1.89632      1.91662     10.87145        -0.875617     -0.499783      1.078748
Ti       1.95277     13.41980     10.90957        -1.003503     -0.227337      0.296221
Ti      13.42393      1.89234     11.02394         0.769069      0.264604      0.870722
Ti      13.36182     13.43894     10.97789         0.619459     -0.801150      0.614166
Ti       1.92203      5.74471      2.35514        -0.156964     -0.185433      2.419650
Ti       1.90050      5.73804     15.37822        -0.517012      0.162214     -0.004194
Ti      13.39163      5.74896      2.28454         1.815655     -1.306947     -0.060259
Ti      13.43373      5.70829     15.33293        -0.587019      0.275192      1.022342
Ti       1.90093      5.65532      6.50565        -0.650491      1.661265      1.715531
Ti      13.33421      5.80162      6.56833         0.206429      0.020444      1.429470
Ti       1.91594      5.70989     11.05008        -0.480961      0.107357     -0.208676
Ti      13.42218      5.77163     11.22742        -0.588215      0.152512     -2.170763
Ti       1.89720      9.62568      2.24184        -0.365588     -0.403102      2.099423
Ti       1.80254      9.51218     15.44209         0.281857      1.037374     -0.547366
Ti      13.29691      9.44282      2.31935         1.048566      2.158805     -0.809633
Ti      13.36889      9.52589     15.32179         0.226305      0.778054      0.128326
Ti       1.84057      9.54848      6.70250        -0.416973      0.087837      0.586100
Ti      13.30800      9.61612      6.47885         1.002272      0.695496      2.859256
Ti       1.75262      9.52330     10.99026         0.636579      0.126248      0.520070
Ti      13.34033      9.54973     11.05153        -0.279409      0.095870      1.586838
Ti       5.74733      1.85845      2.30779        -0.405410      0.146449      0.224752
Ti       5.72335      1.94821     15.31122         0.282240      0.246929      2.563197
Ti       5.71618     13.35963      2.24957         0.678329      0.646444      1.445265
Ti       5.70140     13.49135     15.26718        -0.411565     -0.843468      1.529596
Ti       5.74624      1.86573      6.64635        -0.603339      0.041621      2.645670
Ti       5.82265     13.36177      6.60156        -0.910150      0.838602      0.861918
Ti       5.75515      1.91817     10.99857         0.394327     -0.300747     -0.264347
Ti       5.76178     13.42840     11.07045        -0.504570     -0.267156      0.102187
Ti       5.76472      5.76966      2.28626         0.000510     -0.823188      0.619997
Ti       5.76179      5.75512     15.36060        -0.013186      0.373597      1.378692
Ti       5.73276      5.80434      6.62543         0.077717      0.173298      2.162242
Ti       5.66203      5.69908     10.95338         0.435546      0.322484      0.086195
Ti       5.70182      9.54687      2.32189         0.032154      0.305490     -0.064796
Ti       5.59964      9.64595     15.36132         1.131787     -0.600837      1.315697
Ti       5.76363      9.62192      6.59436        -0.394969     -1.496842      1.716213
Ti       5.67035      9.58913     11.03988        -0.644059     -0.334447     -1.323499
Ti       9.58453      1.80463      2.37681        -0.182600      0.034433     -0.161447
Ti       9.59283      1.91111     15.47222         0.222029      0.550903     -0.276608
Ti       9.50771     13.39607      2.28305         0.965974     -0.276575      0.132616
Ti       9.49533     13.45072     15.31669         0.256635     -0.596526      0.334617
Ti       9.51534      1.86653      6.68838         0.737523      0.584353      0.043821
Ti       9.71427     13.40239      6.63463        -0.782716     -0.890665      0.620664
Ti       9.67647      1.89621     10.93545        -1.685536      0.136934      0.509743
Ti       9.52324     13.39622     11.01561         1.870806      0.029577     -1.103782
Ti       9.65752      5.74497      2.22511        -1.034449     -0.412734      1.064720
Ti       9.50502      5.69638     15.48303         0.895662     -0.377535      0.514146
Ti       9.58378      5.70914      6.64554        -0.214531      0.846275      0.596234
Ti       9.52179      5.77358     11.05643         1.322157      0.394358     -0.609993
Ti       9.49957      9.54691      2.37002        -0.351475      0.401352     -1.145200
Ti       9.51708      9.45639     15.29379        -0.678728      1.251511      1.761711
Ti       9.53685      9.56713      6.51545        -0.014307     -0.614676      0.955244
Ti       9.50535      9.53197     10.98860         1.041562      0.743525      0.553364
O       1.97554      1.93174      0.47931        -0.080689     -0.033144     -0.053290
O       1.91831      1.99586     13.58295         0.473288     -0.001789     -0.515062
O       1.80217     13.58013      0.60000         0.380305     -0.346950     -1.986483
O       1.87803     13.29649     13.58770         0.075385      0.459103     -0.391662
O      13.52327      1.77298      0.56451        -0.389347      0.564583     -0.574484
O      13.28522      1.92043     13.61485        -0.087941      0.018328     -0.643470
O      13.37089     13.47075      0.50959         0.208608     -0.143323      0.380667
O      13.47777     13.36172     13.61559        -0.439256      0.434809     -0.414640
O       1.89766      1.86317      4.95145        -0.023506      0.294234     -0.449475
O       1.90755     13.22606      4.98031        -0.139749      0.618021     -0.582877
O      13.43775      1.90060      4.83602        -0.027028      0.104222      0.932156
O      13.33304     13.33891      4.82513         0.141925      0.302358      0.736801
O       1.95201      1.87245      9.11432        -0.227311      0.045084      0.062994
O       1.87099     13.47124      9.12496         0.318138     -0.101404      0.328321
O      13.42696      1.83232      9.27122        -0.304067      0.065736     -0.314562
O      13.40115     13.52830      9.24199        -0.046942      0.128798     -0.427774
O       1.87510      5.70995      0.65706         0.046562      0.120423     -1.555352
O       1.86905      5.68961     13.61127         0.429095      0.093083      0.145442
O      13.56913      5.75184      0.49764        -0.757719     -0.078305      0.303068
O      13.37672      5.68007     13.57297         0.214027     -0.035366     -0.438857
O       1.97670      5.66780      4.77062        -0.112145     -0.047225     -0.964556
O      13.16756      5.84336      4.84859         0.660003     -0.534722     -0.617691
O       1.88084      5.74847      9.30974         0.132440      0.053787     -0.557490
O      13.30664      5.81073      9.36808         0.598797     -0.277683      0.363758
O       1.81358      9.54250      0.55315         0.052610     -0.019016     -1.883472
O       1.80696      9.53180     13.66547        -0.034502     -0.057792     -0.091893
O      13.29382      9.49785      0.51390         0.171050     -0.098348      0.604059
O      13.40465      9.67600     13.56403        -0.263672     -0.360021      0.469624
O       1.77795      9.63242      4.94289         0.123964     -0.033086     -0.271030
O      13.42584      9.60353      4.74756        -0.204968     -0.219866     -0.744845
O       1.77318      9.61447      9.23317         0.189681     -0.487161     -0.265146
O      13.24308      9.51608      9.33742         0.156685     -0.218547     -1.362859
O       5.75238      1.97876      0.57890        -0.084824     -0.465915     -1.200675
O       5.74526      1.77164     13.61410        -0.181487      0.412379     -1.882936
O       5.65657     13.34071      0.50810         0.295478      0.054065     -0.959090
O       5.73946     13.41673     13.55796        -0.319490      0.329564     -1.272135
O       5.80639      1.80879      4.94820        -0.398876      0.228250     -1.662869
O       5.78820     13.45693      4.88691        -0.210846     -0.294301     -1.286998
O       5.78459      1.93893      9.24711        -0.363725      0.051398     -0.401575
O       5.75828     13.30449      9.33649         0.317065      0.158719     -1.109331
O       5.68100      5.79794      0.55296        -0.157291      0.021056     -0.691322
O       5.80668      5.70009     13.61882        -0.122464      0.051449     -0.330418
O       5.71597      5.91405      4.92580        -0.174960     -0.561347     -1.470798
O       5.70996      5.51834      9.14119        -0.092852      0.754418      1.203061
O       5.66946      9.46426      0.54820         0.116391      0.426145     -0.182780
O       5.63705      9.74500     13.64256        -0.056918     -0.794068     -1.739953
O       5.67589      9.70325      4.89407        -0.016102     -0.284899     -1.814754
O       5.61906      9.59796      9.24169         0.383487      0.335285      0.977274
O       9.56045      1.77760      0.60503        -0.156197     -0.079676      0.079451
O       9.61399      1.78745     13.66928        -0.007760      0.440238      0.250031
O       9.48669     13.41323      0.47210         0.016428      0.203989     -0.029522
O       9.55515     13.55570     13.57303        -0.216494     -0.101867     -0.902380
O       9.53796      1.92886      4.91485        -0.176855     -0.113384      0.109313
O       9.79683     13.31085      4.89207        -0.361098      0.232788     -0.205832
O       9.58841      2.02274      9.18435         0.253683     -0.678600      0.161283
O       9.57542     13.35762      9.23401        -0.668682      0.223135      0.196804
O       9.57159      5.59397      0.50358         0.293882      0.747721     -0.478053
O       9.46293      5.69388     13.70675        -0.206590      0.102644     -1.083451
O       9.77677      5.84120      4.91743        -0.394951     -0.291586     -1.091143
O       9.51799      5.83933      9.29579        -0.248130     -0.218288     -0.164578
O       9.33866      9.45296      0.54784         0.726655      0.352954      0.574318
O       9.43683      9.55999     13.56688         0.365606     -0.264265     -0.547090
O       9.54111      9.48819      4.73695         0.175221      0.436968     -0.159847
O       9.46441      9.40779      9.24307        -0.133346      0.465948      0.263917
O       3.86015      1.97663      2.71090        -0.805825     -0.128246      0.464585
O       3.78975      1.93204     15.78094         1.076089      0.399568     -0.119854
O       3.83392     13.29793      2.64646        -0.701145      0.134178      0.088896
O       3.75112     13.29053     15.86438         0.231318      0.859293     -0.566391
O       0.00891      1.90699      2.74523         0.398462     -0.316004     -0.017856
O       0.05309      1.83357     15.67610        -0.832283      0.386841      0.281643
O       0.02970     13.59244      2.73089        -0.273376     -0.792157      0.112267
O      15.23950     13.54638     15.83580         1.161973     -1.073149     -0.350241
O       3.76171      1.98106      7.10569         0.605472     -0.144379     -0.288000
O       3.83587     13.37512      6.98825        -0.547208     -0.146973      0.446008
O      15.26265      1.78784      7.13050        -0.061238      0.594015     -0.287417
O      15.25003     13.46745      7.17130         0.325356      0.169514     -0.573688
O       3.79445      1.78401     11.41122         0.396797     -0.011717     -0.092128
O       3.81539     13.54260     11.35783        -0.079210     -0.156214      0.116216
O      15.32622      1.98914     11.53358         0.260942     -0.195213     -0.875001
O       0.00773     13.47758     11.40125        -0.385445     -0.978704     -0.060640
O       3.88953      5.68322      2.80079        -0.702753     -0.415061     -0.117626
O       3.78021      5.81708     15.85751         0.215587     -0.581985     -0.354258
O      15.29612      5.73129      2.77230         0.809356      0.291251     -0.016929
O      15.31230      5.76833     15.77393        -0.159894      0.394185      0.057088
O       3.68956      5.79000      7.01932         1.134055     -0.397948     -0.047232
O      15.23115      5.80373      7.03344        -0.267027     -0.211001     -0.301261
O       3.82198      5.66722     11.53373         0.521703      0.420461     -0.166916
O       0.06339      5.56766     11.43171        -0.867932      0.126062      0.370849
O       3.81065      9.71154      2.74272        -0.158162     -0.191524     -0.178632
O       3.71257      9.64948     15.72772         0.502892     -0.247828      0.440112
O       0.00632      9.42267      2.74586        -0.221218      0.066495     -0.569814
O      15.21618      9.56834     15.77943         0.368488      0.010358      0.455064
O       3.75784      9.60250      7.09787        -0.381173     -0.037200     -0.117135
O      15.21308      9.54479      7.24823         0.022387     -0.039094     -1.019294
O       3.75420      9.45356     11.42006         0.206499      0.278129      0.349257
O      15.21803      9.63259     11.49210         1.398611     -0.332509     -0.275776
O       7.57212      1.85746      2.82826         1.580368     -0.053128      0.108240
O       7.67695      2.01962     15.83113        -0.445202     -0.592837     -0.194319
O       7.66127     13.45178      2.72068        -0.592118     -0.248958      0.047023
O       7.51380     13.48352     15.69440         1.215112     -0.195261      0.320337
O       7.59814      1.79107      7.08913         0.877179      0.143056      0.076150
O       7.63538     13.44956      6.95269         1.023079     -0.498516      0.636046
O       7.64510      1.94455     11.27583         1.060318      0.193816      0.640928
O       7.70944     13.35067     11.47965        -0.972229      0.133512     -0.347271
O       7.67789      5.79067      2.72643         0.396190     -0.127363      0.035096
O       7.62541      5.69844     15.95586        -0.575337      0.148700     -0.504054
O       7.66588      5.86639      6.85851        -0.372479     -0.285760      0.682876
O       7.62306      5.67103     11.47469         0.022279      0.414721     -0.370992
O       7.58473      9.65520      2.75831         0.636165     -0.889042      0.129962
O       7.57541      9.50110     15.69916         0.769184      0.321485      0.295159
O       7.63702      9.53302      6.87330         0.384563      0.134660      0.384702
O       7.57840      9.57865     11.52742         0.516142      0.144056     -0.530019
O      11.46179      1.85304      2.71135        -0.020307     -0.005461      0.006964
O      11.46742      1.98222     15.95021         0.311033     -0.561800     -0.393644
O      11.48660     13.42640      2.64592         0.321233     -0.009690      0.123564
O      11.38880     13.43994     15.59311         0.236144      0.527320      0.650127
O      11.49357      1.94710      7.06489        -0.555265     -0.346682      0.152720
O      11.50819     13.29105      7.17709         0.411143      0.677502     -0.352390
O      11.48703      1.87313     11.50034        -0.068968     -0.406527     -0.571923
O      11.47959     13.57840     11.26997         0.202623     -0.027309      0.849020
O      11.55939      5.65728      2.68637        -1.147040      0.513730     -0.296626
O      11.43226      5.69614     15.75491         1.140645      0.332260      0.429513
O      11.44937      5.74240      7.04679         0.653999     -0.304154      0.487746
O      11.50900      5.90873     11.43361        -0.943486     -0.519248      0.670526
O      11.44000      9.65730      2.60462         0.127469     -0.501458      0.114619
O      11.49274      9.52080     15.81414        -1.591818      0.142488     -0.109372
O      11.39936      9.68367      7.09349         0.962732     -0.464374     -0.968002
O      11.47324      9.46674     11.57711        -0.787510      0.158258     -0.188979
O       1.81565      3.75462      2.73204         0.634606      0.814592     -0.030031
O       1.67604      3.88588     15.80431         1.565998     -0.319145     -0.185890
O       1.95133     15.34690      2.84289         0.403998      0.272231     -0.474839
O       1.96661     15.34642     15.74674         0.210392     -0.549294     -0.310120
O      13.38762      3.77729      2.65308        -0.006265      0.417016      0.104303
O      13.46672      3.80461     15.81735        -0.093698      0.213196      0.106171
O      13.47474     15.34868      2.69788        -0.346877     -0.365261      0.512847
O      13.55027      0.03533     15.74711        -1.574125     -0.086333     -0.305103
O       1.70258      3.87768      6.92760         0.191528     -0.974227      0.396452
O       1.87672      0.03250      6.99899         0.304869     -1.276885      0.208986
O      13.32422      3.82810      7.09747         0.463687      0.236332     -0.362305
O      13.29054     15.32508      6.92263        -0.163441      0.255226      0.464070
O       2.04429      3.74701     11.21884        -0.055266     -0.141013      0.597925
O       1.75918     15.28106     11.32570         0.794038      0.953014      0.206905
O      13.32621      3.83628     11.37059        -0.062699     -0.958115      0.496017
O      13.53044      0.01317     11.42971        -0.619432     -0.181106      0.175122
O       2.12876      7.67289      2.77637        -1.101270     -0.297827     -0.486158
O       1.83390      7.66407     15.88213         0.008027     -0.476319      0.017047
O      13.38393      7.62289      2.60265        -0.335596     -0.288219      0.453453
O      13.34585      7.67734     15.76687         0.081725     -0.966375     -0.154430
O       1.74716      7.64713      6.97160         0.443280      0.016677      0.118044
O      13.22757      7.74654      6.96039         0.323334     -0.780263     -0.286959
O       1.76427      7.63327     11.45666         0.357253     -0.045365      0.078996
O      13.50325      7.61426     11.50571         0.246022      0.399158      0.423082
O       1.69083     11.45351      2.71194         0.982936      1.245177     -0.628157
O       1.72717     11.44278     15.84607         0.128626      1.120607     -0.112958
O      13.50394     11.44976      2.57742         0.094239      0.444399      0.309741
O      13.22747     11.56963     15.75682         0.627080     -0.793435      0.420669
O       1.69501     11.49265      7.12514         0.698408      0.186698     -0.105240
O      13.40421     11.45434      7.08942        -0.045191      0.372856     -0.370410
O       1.86839     11.41110     11.37549         0.406057      1.093263     -0.096926
O      13.25387     11.43304     11.34967         0.129585      1.937339      0.075152
O       5.85183      3.81918      2.52902        -0.271712      0.288733      1.241375
O       5.72356      3.84486     15.84308        -0.401867     -0.205102     -0.433056
O       5.68629     15.29405      2.62069        -0.129035     -0.161658      0.275451
O       5.79607      0.04755     15.78521        -1.076872     -0.136926     -0.320549
O       5.79186      3.84361      7.06592        -0.267871     -0.197652     -0.578953
O       5.71026     15.26516      7.09085        -0.293893      0.776989      0.169888
O       5.70744      3.79550     11.39597        -0.242330     -0.069120      0.231637
O       5.89727     15.30780     11.30364        -0.450250      0.639951      0.480269
O       5.68495      7.63927      2.67150         0.000126      0.861775      0.440154
O       5.73370      7.69160     15.72768        -0.512162     -0.611828      0.017801
O       5.72385      7.70796      7.12825        -0.509426     -0.673530     -0.080599
O       5.69526      7.62477     11.20211         0.201272     -0.540695      0.723932
O       5.81877     11.45878      2.71708        -0.370280      0.904200     -0.057538
O       5.72525     11.52014     15.63094        -0.173536      0.681293      0.965529
O       5.73231     11.41634      7.06930         0.105849      1.738045      0.253502
O       5.59753     11.51406     11.41979         0.489336     -0.334695      0.203001
O       9.59034      3.85402      2.64437        -0.361148     -0.829344      0.606534
O       9.59524      3.86574     15.90535        -0.386016     -1.450169     -0.220678
O       9.52570     15.27603      2.82438         0.203685      0.828977     -0.204426
O       9.54081     15.32162     15.77876        -0.320353      0.686847      0.363480
O       9.51956      3.81896      7.03101        -0.132062     -0.242311      0.086128
O       9.60930     15.26265      7.05640         0.035443      1.111047      0.180765
O       9.69165      3.90939     11.38636        -0.317485     -1.290769      0.258238
O       9.48735     15.33284     11.27035         0.122288      1.119023      0.214278
O       9.57783      7.62915      2.67118         0.225609      0.023966     -0.050128
O       9.48241      7.61402     15.70327         0.316018      0.601454      0.304776
O       9.64502      7.69171      7.03791        -0.427451     -0.088160     -0.037746
O       9.64175      7.72123     11.44975        -1.426793     -1.115360      0.514540
O       9.55202     11.50929      2.57065        -0.188199     -0.419136      0.536879
O       9.49150     11.51515     15.67359        -0.043117     -0.293979      0.285677
O       9.55152     11.44479      7.05647        -0.540399      0.518325     -0.106055
O       9.68113     11.50407     11.37169        -0.471088     -0.505863      0.254464
