  # total energy = -7884.12644844 
CRSYTAL
PRIMVEC
    15.3600000000000000    0.0000000000000000    0.0000000000000000
     0.0000000000000000   15.3600000000000000    0.0000000000000000
     0.0000000000000000    0.0000000000000000    17.440000000000000
PRESSURE
2.0223 2.15661 1.63181 -0.167508 -0.150134 0.036541
PRIMCOORD
320 1
Pb       3.86112      3.76113      4.27751        -0.001070      0.071398      0.743377
Pb       3.73814      3.79904     17.42379         0.538582      0.106108     -0.276014
Pb       3.79676     15.28084      4.30685         0.468801      0.364209      0.604709
Pb       3.73544     15.25783     17.33025         0.492529      0.164535      0.550034
Pb       0.03798      3.76595      4.25133        -0.155098      0.323501      0.364467
Pb      15.32907      3.81620     17.34194        -0.158781     -0.383666      0.491491
Pb       0.00303      0.00432      4.31333         0.214171     -0.198923     -0.040933
Pb       0.06712     15.33566     17.36050        -0.504606     -0.085173      0.288208
Pb       3.80125      3.77581      8.72478         0.434075      0.649723      0.190296
Pb       3.83777      0.03078      8.49656         0.095781     -0.478074      1.643436
Pb       0.08930      3.87998      8.71812        -0.744264      0.139858      0.445339
Pb      15.27808     15.31246      8.70185         0.168017      0.213141      0.065586
Pb       3.81639      3.84268     13.06543         0.091250     -0.425068     -0.649321
Pb       3.83894      0.10028     12.99458         0.165526     -0.167461      0.450315
Pb       0.03291      3.83708     13.02427        -0.116425     -0.356112     -0.051518
Pb      15.31703     15.28647     13.08193        -0.080475     -0.021856      0.012718
Pb       3.80615      7.64724      4.34924        -0.242266      0.268088      0.232361
Pb       3.87322      7.60847     17.32340        -0.337790      0.453467      0.500411
Pb      15.28759      7.75278      4.29700         0.602640     -0.620671     -0.074860
Pb      15.30351      7.54732     17.43354         0.363230      0.529883     -0.118886
Pb       3.72648      7.73638      8.60934         0.669324     -0.097066      0.239210
Pb      15.35653      7.70989      8.62981        -0.066764     -0.255192      0.523010
Pb       3.86296      7.63510     12.95286         0.080884      0.032089      0.521218
Pb      15.28212      7.60079     13.02980        -0.244105      0.270611      0.357073
Pb       3.93077     11.51010      4.36033        -0.918915     -0.329558      0.025741
Pb       3.71072     11.63432     17.37964         0.152468     -0.792286      0.445848
Pb      15.23255     11.42209      4.41578         0.492607      0.706866     -0.705897
Pb      15.32782     11.53476     17.38957        -0.040830     -0.413480     -0.238794
Pb       3.90780     11.46526      8.64143        -0.486403     -0.007876      0.241017
Pb      15.30449     11.56549      8.70657         0.066097     -0.063699     -0.363303
Pb       3.79768     11.46538     13.03729         0.059149      0.433826     -0.172755
Pb       0.02220     11.51752     12.96777        -0.255806      0.246896      0.599159
Pb       7.65384      3.81381      4.26279        -0.135119     -0.450522      0.128541
Pb       7.56036      3.76104      0.05496         0.180167      0.117646     -0.271704
Pb       7.65957     15.23223      4.39907        -0.107639      0.353124     -0.306480
Pb       7.75049     15.34536     17.42401        -0.494047      0.086491     -0.141605
Pb       7.66172      3.87641      8.60635        -0.173020     -0.272223      0.169734
Pb       7.64358      0.06718      8.71526        -0.049744      0.035860     -0.147170
Pb       7.71478      3.85390     12.92983        -0.102427     -0.515868      0.804539
Pb       7.60325      0.00261     13.01709         0.114982      0.627110      0.176011
Pb       7.75440      7.67725      4.36350        -0.355729     -0.015664      0.006366
Pb       7.57066      7.75454     17.36487         0.197385     -0.690665      0.335708
Pb       7.77133      7.55976      8.68196        -0.802289      0.508799      0.569441
Pb       7.73514      7.72958     13.05223        -0.389066     -0.267788      0.177833
Pb       7.65183     11.50772      4.32658         0.290532     -0.223090      0.468053
Pb       7.66210     11.43032     17.38512         0.123623      0.132625      0.138508
Pb       7.63036     11.59459      8.63794         0.356286     -0.326527      0.764797
Pb       7.59088     11.45264     12.95538         0.307882      0.129275      0.160517
Pb      11.44105      3.87938      4.26401         0.530540     -0.322973      0.216590
Pb      11.55511      3.83112     17.41730         0.079042     -0.285822      0.675740
Pb      11.55747     15.25797      4.42295        -0.125693      0.683640     -0.413358
Pb      11.44507     15.33383      0.09770         0.245891     -0.053718     -0.703753
Pb      11.44169      3.74437      8.65030         0.483484      0.940944      0.126847
Pb      11.50661      0.09341      8.71192         0.050877     -0.353207     -0.101576
Pb      11.55238      3.77931     12.99840         0.088968      0.191267      0.447134
Pb      11.55414      0.00923     13.03935        -0.102999     -0.254316     -0.087166
Pb      11.48407      7.60031      4.33653        -0.172989      0.382346     -0.468603
Pb      11.51673      7.73483     17.36516        -0.285128     -0.540257      0.467444
Pb      11.53278      7.71152      8.64922         0.012982     -0.710663      0.445241
Pb      11.51150      7.59018     13.12757         0.051637     -0.018722     -0.046957
Pb      11.50567     11.56172      4.21433         0.085886     -0.672108      0.987174
Pb      11.46577     11.46783     17.40018        -0.012312      0.120322     -0.177538
Pb      11.57640     11.50503      8.55887        -0.583595      0.103199      0.745233
Pb      11.56143     11.52332     13.07792        -0.436946      0.211471      0.229755
Ti       1.96325      1.88951      2.31665        -0.125723     -0.781482      1.287423
Ti       1.92770      1.89805     15.40606        -0.325423     -0.251776     -0.185815
Ti       1.93460     13.40602      2.37820        -0.511384     -0.607904     -0.481840
Ti       1.91538     13.38565     15.40639        -1.420681     -0.452288     -0.886757
Ti      13.43121      1.89421      2.39866         0.101422      0.612553     -0.816281
Ti      13.45760      1.83755     15.38122         0.207944      0.158316     -0.176371
Ti      13.43221     13.46929      2.32847         0.933599     -0.407029     -0.537033
Ti      13.34204     13.47628     15.49574         0.847284     -1.100115      0.405162
Ti       1.89669      1.98081      6.82889        -0.063845     -0.660978     -0.718666
Ti       1.86573     13.48664      6.75058         0.491010     -0.330728     -0.107403
Ti      13.45750      1.94070      6.70019        -0.797083     -0.442623     -1.298425
Ti      13.37992     13.44975      6.68273         0.672064     -0.087437     -0.014982
Ti       1.88536      1.78255     11.03242         0.743562      1.592281      0.016142
Ti       1.93341     13.44619     10.99755        -0.410820      0.088638      0.798693
Ti      13.51771      1.88905     11.02496        -0.497685      0.281539     -0.081546
Ti      13.39894     13.40360     10.99491        -0.268936      0.632730      0.575420
Ti       1.92232      5.73324      2.35943        -0.423966      0.365193      1.740665
Ti       1.99404      5.74884     15.34349        -1.164557     -0.370004      0.336340
Ti      13.44374      5.80268      2.43437        -0.179790     -0.634557     -0.183763
Ti      13.42007      5.68039     15.48565        -0.500725     -0.328082     -0.858480
Ti       1.86954      5.78748      6.77472         1.285257      0.305759     -0.462118
Ti      13.45102      5.71427      6.63342        -0.798828     -0.306087     -0.042199
Ti       1.90365      5.77853     11.07306         0.197206     -1.310130     -0.005127
Ti      13.41529      5.75773     11.07446        -0.524770     -0.580984     -1.847956
Ti       1.85931      9.55214      2.33493         0.202136      0.603399      0.701130
Ti       1.87221      9.54847     15.30372        -0.666472     -0.040743      3.309720
Ti      13.39050      9.65086      2.31029        -0.503141     -0.601278     -0.802740
Ti      13.37747      9.55432     15.48234         0.559099      0.881022     -0.191554
Ti       1.80060      9.68680      6.62147         2.038453     -1.175528      0.194222
Ti      13.41709      9.53157      6.70611        -0.458133      0.498423      0.280962
Ti       1.87326      9.55726     11.03061         0.079401     -0.242598     -0.051769
Ti      13.39000      9.60404     11.07724        -0.317921     -0.452532     -0.604151
Ti       5.75862      1.93882      2.26944         0.510756     -1.280123      0.371729
Ti       5.74780      1.85670     15.50594         0.711389     -0.011243     -0.175919
Ti       5.73803     13.39197      2.37556         0.322803      0.910027     -0.191212
Ti       5.81482     13.40637     15.40752        -0.580692      0.854455     -0.352783
Ti       5.77112      1.89097      6.66552         0.043453      0.661441      0.296302
Ti       5.72106     13.38656      6.73102         0.253209      0.638456      0.560150
Ti       5.76704      1.99040     10.95822        -0.144690     -0.566117      0.702303
Ti       5.64400     13.46681     11.05543         1.046554     -0.117678     -0.392988
Ti       5.69869      5.79074      2.38466         0.544674     -0.078811      0.109439
Ti       5.72031      5.69087     15.33271         1.026731      0.185277      0.155217
Ti       5.70497      5.73123      6.66568        -0.424882      0.077523      0.326886
Ti       5.75924      5.78392     11.06156        -0.182490     -0.296748     -0.051635
Ti       5.70673      9.58369      2.38289        -0.762766     -0.071689     -0.103952
Ti       5.63874      9.63563     15.42668         0.199534     -0.946393     -0.314910
Ti       5.76137      9.56076      6.66989        -0.855822     -0.852335      0.411639
Ti       5.68273      9.52827     11.02133         0.864373      0.988445      0.328454
Ti       9.62028      1.78697      2.30279        -0.286254      0.908528      0.700129
Ti       9.66391      1.96815     15.50057        -1.245657     -0.709856     -0.901519
Ti       9.59020     13.37187      2.38133        -0.307392      0.074221     -0.490253
Ti       9.56569     13.40663     15.36731         0.990184     -0.262379     -0.185830
Ti       9.59118      1.93288      6.59751        -0.307790      0.197468     -0.825500
Ti       9.58613     13.51043      6.75471        -0.496712     -1.271010     -0.783078
Ti       9.66827      1.86795     10.98819        -1.028825      0.401758      0.508184
Ti       9.50118     13.45838     11.04996         1.362709     -0.509388      0.177700
Ti       9.52401      5.69332      2.30650         0.906996      0.456949     -0.558947
Ti       9.50307      5.71430     15.54293         0.434297     -0.137159     -0.486940
Ti       9.54347      5.78869      6.65081         1.335838     -0.343661      0.590983
Ti       9.54302      5.71932     11.11814         0.887813      0.078987      0.217088
Ti       9.51679      9.57457      2.30353         0.648313     -0.752444     -0.758822
Ti       9.53531      9.52535     15.39705         0.012914      0.606128      0.384364
Ti       9.52653      9.59329      6.80653         0.166054      0.353024     -1.096493
Ti       9.60776      9.57421     11.10711        -0.384641      0.343376      0.172838
O       1.98164      1.69515      0.62207        -0.019879      0.585161     -1.976431
O       1.94374      1.90904     13.67249        -0.113052     -0.056150     -0.377451
O       1.95518     13.42825      0.56390        -0.016622     -0.306012      0.471442
O       1.95630     13.37960     13.65961        -0.212637     -0.215143     -0.854591
O      13.59313      1.91645      0.63524        -0.512173     -0.296503      0.604794
O      13.47692      1.87964     13.60775        -0.023889     -0.061987     -0.434534
O      13.43534     13.39220      0.56770        -0.128730      0.261526     -0.029429
O      13.24748     13.44309     13.76889         0.155069      0.192454     -1.604311
O       1.92920      2.00908      5.08941         0.037856     -0.177750     -0.452362
O       1.85537     13.47221      5.02596         0.126303      0.148914     -0.894631
O      13.33505      1.85004      4.85718         0.309202     -0.042276      1.179487
O      13.51615     13.35876      4.92006        -0.312751      0.399522     -0.149642
O       1.90700      1.85071      9.27597        -0.261833      0.109038     -0.615909
O       1.93032     13.57835      9.27276        -0.324325     -0.523825     -0.554545
O      13.43087      1.82940      9.23145        -0.002716      0.134728      0.383268
O      13.39860     13.47502      9.24687         0.289083     -0.107905     -0.688563
O       1.88360      5.67972      0.67632         0.253537      0.073664     -2.005227
O       2.02342      5.62955     13.59600        -0.294968      0.459257     -0.605454
O      13.41229      5.78940      0.68984         0.210099     -0.225088     -1.445777
O      13.42524      5.62189     13.71070         0.041997      0.040218      0.333076
O       1.85481      5.75290      5.05280         0.204350     -0.151083     -1.187563
O      13.48182      5.72229      4.84678        -0.105474      0.164128      0.770001
O       1.85055      5.84622      9.33178        -0.170926     -0.155480     -0.552915
O      13.44803      5.71534      9.25988        -0.046321      0.325005      0.926368
O       1.75298      9.54852      0.63450         0.450232      0.062251     -1.198700
O       1.84682      9.56116     13.62625         0.086117      0.058731     -2.709755
O      13.21179      9.59470      0.53032         0.535210     -0.127473      0.012651
O      13.36646      9.58398     13.75469         0.129767     -0.042476     -1.097270
O       1.91271      9.43577      4.89683        -0.660246      0.704213     -0.346586
O      13.47562      9.70187      4.98638        -0.116315     -0.247851     -0.894815
O       1.91623      9.43192      9.26357        -0.552184      0.677137      0.832637
O      13.38352      9.57490      9.28522         0.178099     -0.012261      0.150813
O       5.76482      1.80852      0.50143        -0.436558      0.578941      0.407387
O       5.72286      1.85454     13.75375         0.142754     -0.176051     -0.889296
O       5.67495     13.25766      0.64870         0.118181      0.449563     -0.912127
O       5.66615     13.48679     13.64079         0.275986     -0.054868      0.350780
O       5.76512      1.89240      4.92972         0.173198      0.023913     -0.285617
O       5.73855     13.34433      5.00152         0.268057      0.005945     -0.864617
O       5.84987      1.96161      9.20938        -0.212371      0.118407     -0.180957
O       5.72905     13.42270      9.30581         0.239694      0.125590     -0.620081
O       5.60004      5.72414      0.64035         0.236765      0.052808     -0.424932
O       5.81506      5.70759     13.56832        -0.510137      0.045785      0.440500
O       5.73041      5.70697      4.91906        -0.101209      0.084073     -0.316453
O       5.81082      5.73089      9.34422        -0.020981      0.001705     -1.222960
O       5.68145      9.65539      0.62385         0.123433     -0.427735     -0.189998
O       5.70331      9.46791     13.69222        -0.152925      0.693973     -0.577577
O       5.73001      9.62567      4.90909         0.278938      0.084459      0.029668
O       5.62094      9.59345      9.30416         0.267851     -0.125334     -0.887887
O       9.55576      1.80735      0.52563         0.249034     -0.264236     -0.012075
O       9.44638      1.96235     13.73519         0.632853      0.018984      0.363575
O       9.53637     13.29261      0.62280         0.136622      0.444682      0.234885
O       9.71877     13.30730     13.60473        -0.234940      0.454593      0.361119
O       9.64535      1.86184      4.78978        -0.119240      0.085369      1.189785
O       9.55999     13.25251      4.98555         0.241195      0.573837     -0.158859
O       9.53385      1.92057      9.22921         0.439498     -0.133135     -0.132854
O       9.55650     13.50401      9.29037        -0.115244      0.041945     -0.505998
O       9.49291      5.73200      0.55293         0.024460     -0.031153      0.246909
O       9.56948      5.68186     13.77253        -0.103489     -0.009936     -0.463035
O       9.68005      5.81493      4.92457        -0.394831      0.105961     -0.743804
O       9.70223      5.74080      9.41218        -0.347054      0.044268     -1.640070
O       9.40230      9.54462      0.49232         0.491039      0.103058      1.298238
O       9.48512      9.64021     13.65208         0.051550     -0.380941     -0.802990
O       9.40352      9.43941      5.04024         0.459157      0.528361     -0.034066
O       9.54959      9.56977      9.36363         0.333205     -0.168509     -0.254723
O       3.93480      1.77548      2.84916        -0.729752      0.671617     -0.565983
O       3.85453      1.83188     15.76623        -1.812129      0.354614      0.568700
O       3.87790     13.47002      2.83203        -0.499321      0.010724     -0.074274
O       3.72479     13.36348     15.74677         2.239847     -0.167438      0.595517
O       0.07541      1.93307      2.72683        -0.347633     -0.359037      0.378285
O      15.29849      1.83027     15.84048         2.247210      0.066416      0.035186
O       0.01957     13.43883      2.72710        -0.014529      0.054574      0.170664
O      15.33011     13.30062     15.80035        -0.065727      0.394778      0.178421
O       3.85782      1.92423      7.22422        -0.091223      0.406467     -0.713296
O       3.84370     13.41925      7.08446        -0.143353      0.073831      0.107739
O      15.27273      2.01488      7.07264         1.083847     -0.535114      0.221449
O       0.02693     13.48245      7.09184        -1.260749     -0.004626      0.596912
O       3.81050      2.03605     11.43435         0.327136     -0.758778     -0.010570
O       3.82029     13.45672     11.39928        -1.081551     -0.290754      0.368314
O       0.05740      1.84236     11.49401        -1.031107      0.407311     -0.077793
O      15.33093     13.50624     11.47120         0.265369     -0.667658     -0.137894
O       3.86477      5.78622      2.76043        -1.346899     -0.161148      0.315028
O       3.82837      5.66309     15.89771        -0.214505     -0.104790     -0.441219
O       0.02663      5.76318      2.77558         0.013801     -0.607809      0.154245
O      15.32898      5.70264     15.87598        -0.090725      0.208815     -0.235640
O       3.84336      5.81809      7.28041        -0.237479     -0.855227     -0.648196
O       0.01879      5.80807      7.18782        -1.322563     -0.429576     -0.215517
O       3.85454      5.73826     11.37932        -0.885720      0.210684      0.438821
O      15.28409      5.69941     11.48280         0.821762      0.322699      0.218905
O       3.75022      9.53528      2.80756         1.054441      0.074316     -0.148028
O       3.73141      9.57717     15.80294         0.758566     -0.064100     -0.077405
O      15.26274      9.70724      2.64617         0.535243     -0.214278      0.768490
O      15.28635      9.50368     15.86587         0.219211     -0.067669     -0.133292
O       3.77647      9.71824      6.97667         0.527930     -0.427143      0.420472
O      15.32806      9.62073      7.07367        -0.652721     -0.340812      0.287147
O       3.78894      9.49965     11.42660        -0.847228      0.258803      0.262986
O      15.22760      9.48402     11.58341         1.378559      0.328190     -0.577808
O       7.62984      1.95590      2.61979         1.099105      0.156088      0.346757
O       7.63134      1.82508     15.88833         0.631556      0.051607      0.281093
O       7.71321     13.28076      2.82581         0.022836      0.214153     -0.110754
O       7.74216     13.44513     15.76919        -1.772149     -0.149889     -0.006482
O       7.67394      1.98650      7.14979         0.370705     -0.588156     -0.466835
O       7.69867     13.40502      7.02414        -0.722383      0.229566      0.586890
O       7.64493      1.83518     11.35152         0.214470      0.066404      0.325423
O       7.70238     13.53459     11.49662        -1.523861     -0.253478     -0.109529
O       7.68388      5.63686      2.78368        -0.161657      0.388905     -0.153385
O       7.59325      5.72698     15.82002        -0.667188      0.127465      0.155889
O       7.65964      5.84445      7.06683         0.016277     -0.306407      0.001700
O       7.63389      5.85945     11.35521         1.159275     -0.452894      0.614876
O       7.62185      9.58763      2.72433         0.386710      0.395755      0.111451
O       7.63235      9.44482     15.84360        -1.028122      0.572773     -0.270969
O       7.64798      9.53588      7.18260        -0.550001      0.258296      0.021591
O       7.64386      9.54245     11.50547        -0.063512      0.031826     -0.168320
O      11.50406      1.75507      2.62046         0.276463      0.173627      0.195032
O      11.61690      1.92138     15.79878        -2.048058     -0.344887      0.344456
O      11.53978     13.36892      2.70369        -0.216021      0.775534      0.303818
O      11.47698     13.41300     15.97507        -0.654417      0.206843     -0.082574
O      11.45662      1.94097      7.13753         0.058025     -0.160949     -0.249185
O      11.48152     13.48160      7.01466         0.646284     -0.442436      0.338961
O      11.55526      1.95264     11.45956        -0.457256     -0.685628     -0.444029
O      11.52387     13.43437     11.40051         0.092894     -0.080115      0.219657
O      11.49903      5.84654      2.69853        -0.241694     -0.082536      0.519480
O      11.46234      5.50424     15.88674         0.633031      0.829720     -0.188554
O      11.53003      5.76907      7.04892        -0.346706     -0.356463      0.036533
O      11.58104      5.63922     11.53921        -1.105985      0.366567      0.214940
O      11.49807      9.54224      2.74552        -0.386539     -0.268941      0.158109
O      11.40398      9.51801     15.75215         0.418373      0.216678      0.478647
O      11.51195      9.59213      7.13100        -0.029763      0.277807     -0.096307
O      11.50867      9.59710     11.57027        -0.223805      0.294852     -0.343738
O       1.96611      3.75302      2.70668         0.423012      0.769016      0.125055
O       1.81681      3.84784     15.69020         0.562253     -0.989253      0.751397
O       2.03411     15.34270      2.77692        -0.806693     -0.144491      0.299902
O       1.89902     15.25704     15.73877        -0.201920      1.358694      0.319464
O      13.37049      3.84866      2.78441         0.192907     -0.512813     -0.007295
O      13.49623      3.65081     15.90852        -0.123628      2.304591      0.068942
O      13.50113     15.35089      2.72171        -0.266237     -0.490374      0.398943
O      13.50699     15.33629     15.79380        -0.538245     -0.280666      0.527119
O       1.95840      3.87663      7.17440        -0.238617     -0.242788      0.498765
O       1.93528      0.05709      7.13652        -0.381427     -0.265917     -0.153051
O      13.37648      3.76762      7.07557         0.160159      1.367293     -0.000438
O      13.38217     15.32503      7.11317         0.131310      0.528421     -0.131911
O       1.92032      3.77147     11.39224        -0.479286      0.912064      0.250944
O       1.84224     15.31118     11.47190         0.674905     -0.049739      0.187354
O      13.38972      3.77778     11.35827         0.809214      0.009621      0.371917
O      13.51623     15.35816     11.41992        -0.677416     -0.314067      0.250173
O       1.79081      7.67361      2.70897         0.335836     -0.525845      0.245767
O       1.86703      7.56250     15.80585         0.230354      0.655537     -0.127697
O      13.53345      7.69068      2.73382        -0.431262      0.668710      0.265378
O      13.28066      7.59033     15.70491         0.220076     -0.373058      0.708586
O       1.96055      7.67928      7.07653        -0.648019      0.814535      0.260596
O      13.29600      7.63561      6.98933         1.026685      0.319453      0.070515
O       1.83284      7.64634     11.47325         0.041763      0.305379      0.188718
O      13.29995      7.67384     11.54642         0.552223     -0.286261     -0.173768
O       1.95028     11.54581      2.79955         0.079860     -0.059729     -0.091079
O       1.90624     11.39485     15.79627        -0.479235      0.599939      0.015905
O      13.38084     11.52483      2.68735         0.177799      0.169325      0.408731
O      13.32311     11.51017     15.74948         0.003153     -0.606320      0.766567
O       1.85934     11.51456      7.08210        -0.277085      0.522533      0.244130
O      13.50205     11.56226      7.10851        -0.258637     -0.402728      0.235784
O       1.87374     11.49852     11.44464        -0.039687     -0.527655     -0.340894
O      13.54977     11.52283     11.35739        -0.493665     -0.253428      0.281195
O       5.73113      3.85027      2.76800        -0.193486     -0.612127     -0.276198
O       5.72284      3.76695     15.86027        -0.210884      0.917540      0.075684
O       5.98285     15.30555      2.80969        -0.871671      0.079370     -0.306813
O       5.67639     15.28917     16.00019         0.519081     -1.013215     -0.786595
O       5.72348      3.83664      6.94667         0.175600     -0.005320      0.796286
O       5.82454      0.02033      7.07631        -0.150501     -0.836797      0.000267
O       5.80335      3.85531     11.47375        -0.138190     -0.388197     -0.238139
O       5.60200      0.01109     11.40367         0.670117      0.522109      0.100348
O       5.73232      7.65945      2.83378         0.353039      0.456468     -0.341597
O       5.58546      7.66907     15.72194         0.370706     -0.721768      0.455252
O       5.66595      7.65062      7.03397         0.330492      0.999369      0.009679
O       5.75108      7.70107     11.51000        -0.236767     -0.454683     -0.056149
O       5.63927     11.54950      2.72162         0.485338     -1.639065      0.736932
O       5.75972     11.51967     15.75329        -0.037102      0.057990      0.110563
O       5.72461     11.50342      7.18636         0.459002     -0.156485     -0.399913
O       5.61585     11.51263     11.34661         0.542221     -0.212469      0.763370
O       9.74165      3.77588      2.69223        -0.675814      0.137571     -0.170063
O       9.46016      3.79843     15.99090         0.279388     -0.406411     -0.124853
O       9.64085     15.29453      2.78751        -0.576436     -0.563447     -0.159593
O       9.55912     15.30773     15.78213         0.626869      0.377277      0.336724
O       9.47746      3.86248      6.93933         0.580653      0.156587      0.403405
O       9.64430      0.03554      6.97514        -0.484193      0.044282      0.312063
O       9.57314      3.78714     11.42058        -0.144086     -0.083365      0.174904
O       9.60977      0.02567     11.45779         0.239063     -0.054811      0.114061
O       9.52135      7.66486      2.74554         0.023888      0.162079      0.062356
O       9.58134      7.60991     15.88100        -0.122941     -0.068738     -0.153676
O       9.57979      7.68689      7.15410         0.255225     -0.476491      0.244711
O       9.64517      7.59272     11.49885         0.041550      0.999843      0.334496
O       9.74868     11.44678      2.74641        -1.125882     -0.116416     -0.146990
O       9.46248     11.42299     15.79504         0.451508      0.673923      0.148328
O       9.55009     11.49464      7.21710         0.299968      0.071436     -0.196049
O       9.43614     11.52236     11.47440         0.673750     -0.256095     -0.252856
