  # total energy = -7877.52673638 
CRSYTAL
PRIMVEC
    15.3600000000000000    0.0000000000000000    0.0000000000000000
     0.0000000000000000   15.3600000000000000    0.0000000000000000
     0.0000000000000000    0.0000000000000000    17.440000000000000
PRESSURE
1.21937 1.43844 -4.58486 -0.455023 -0.291326 0.073695
PRIMCOORD
320 1
Pb       3.80669      3.84057      4.36942        -0.016507      0.036384     -0.157341
Pb       3.93249      3.81709     17.35129        -0.792675     -0.113026      0.839754
Pb       3.82545     15.34826      4.31942        -0.256636     -0.456925      0.758736
Pb       3.88223      0.02132     17.39846         0.046220     -0.249660      0.427300
Pb      15.31679      3.82660      4.37297         0.228188     -0.009821      0.309026
Pb       0.04992      3.82764      0.01572         0.119350      0.378706      0.051617
Pb       0.00709     15.32187      4.32138         0.009201     -0.020986      0.116448
Pb      15.19355     15.32791     17.41137         1.158343     -0.111168      0.982541
Pb       3.79705      3.89476      8.59403        -0.067801      0.030697      0.548648
Pb       3.82404     15.32753      8.77434        -0.214704      0.174345     -0.045305
Pb      15.16185      3.85722      8.61743         0.625012      0.241926      1.132832
Pb      15.29848      0.10383      8.66185         0.440616     -0.706792      0.952811
Pb       3.86949      3.78160     12.97152        -0.360503      0.417590      1.103594
Pb       3.79851     15.26382     13.00407        -0.181679      0.220346      0.130446
Pb      15.31810      3.74061     13.07451         0.239042      0.528333      0.487713
Pb      15.34932      0.02920     12.94717         0.159868     -0.970673      1.130559
Pb       3.88006      7.69633      4.27940         0.036274     -0.209651      0.292723
Pb       3.76076      7.66798      0.01617         0.299232     -0.166830     -0.119650
Pb       0.10739      7.66973      4.30016        -0.358293      0.111173      0.696694
Pb      15.34639      7.76679     17.34818         0.015302     -0.895010      0.327264
Pb       3.92121      7.61718      8.68423        -0.903879      0.627733      0.602233
Pb      15.33322      7.63255      8.67267         0.208297      0.345620      0.464027
Pb       3.83235      7.65749     13.06021        -0.489307      0.276609      0.613776
Pb       0.03031      7.68581     13.05902         0.380718     -0.018628      0.606976
Pb       3.72577     11.47703      4.30463         0.125413      0.031108      0.773703
Pb       3.93964     11.37878     17.34126        -0.411939      0.369465      0.649170
Pb       0.08960     11.59783      4.21002        -0.106187     -0.580574      1.221332
Pb      15.31398     11.46768     17.36157        -0.023301      0.269807     -0.081510
Pb       3.79509     11.57528      8.70239         0.186729     -0.731519      0.490358
Pb      15.35782     11.41414      8.65584        -0.205567      0.280401      0.701711
Pb       3.92294     11.51929     13.01029        -0.663029     -0.636324      0.021043
Pb       0.05178     11.48561     13.10080         0.153487     -0.140024     -0.016792
Pb       7.67166      3.74835      4.37053         0.221629      0.685657     -0.130931
Pb       7.72986      3.89092     17.28128        -1.539172     -0.497973      1.686415
Pb       7.66799      0.04823      4.30474        -0.366594     -0.764323      0.336722
Pb       7.51091     15.34787     17.34159         0.293152     -0.236992      0.824412
Pb       7.66072      3.81702      8.67487        -0.035191      0.140331      0.821190
Pb       7.68899     15.28921      8.64052        -0.231964      0.025498      0.376375
Pb       7.76669      3.90505     13.17067        -0.551793      0.005516     -0.080980
Pb       7.70905      0.07154     13.02660        -0.601360     -0.461107      0.263856
Pb       7.58576      7.60094      4.27840         0.066911     -0.296426      0.527371
Pb       7.66952      7.64098     17.41817        -0.982662      0.126497      0.024573
Pb       7.61645      7.77897      8.62821         0.308413     -0.475758      1.038093
Pb       7.64378      7.63211     13.00558        -0.177774      0.103777      0.873315
Pb       7.65143     11.44675      4.32546         0.391595     -0.044944      0.565631
Pb       7.61827     11.59686     17.32132        -0.437755     -0.570621      1.028494
Pb       7.72068     11.47845      8.68566        -0.642230      0.409229      0.287528
Pb       7.80653     11.61101     13.06879        -0.959691     -1.139454      0.037367
Pb      11.56804      3.76248      4.34172        -0.507682      0.824508      0.629364
Pb      11.50826      3.82933     17.43611         0.262966     -0.139765      0.226629
Pb      11.53461      0.02924      4.24310         0.314681     -0.588299      1.393754
Pb      11.47147     15.33143     17.25962        -0.631328     -0.238835      0.835923
Pb      11.56363      3.96848      8.66284        -0.511922     -0.663649      0.528580
Pb      11.50470     15.29221      8.64303        -0.431478      0.267062      0.715153
Pb      11.52195      3.75648     13.15161        -0.305668      0.255456      0.330390
Pb      11.43032     15.33478     13.01380         0.793981      0.217011      0.902448
Pb      11.56166      7.68935      4.24188        -0.490925     -0.331119      1.465975
Pb      11.44435      7.61223     17.42978         0.405334      0.080036      0.068478
Pb      11.54457      7.65969      8.65811        -0.377716      0.235409      0.203719
Pb      11.44784      7.69779     12.99489        -0.076818     -0.339101      0.763573
Pb      11.54830     11.43229      4.36535        -0.219380     -0.262897      0.370829
Pb      11.43163     11.48985     17.37597         0.072327      0.208494     -0.026293
Pb      11.49024     11.50577      8.77452         0.185236      0.082418      0.073667
Pb      11.49350     11.49638     12.96481        -0.194468     -0.756389      0.946299
Ti       1.98867      1.92058      2.36076        -0.107944     -0.160895     -1.839672
Ti       1.98517      1.88421     15.37937         0.233687      0.284050      0.411241
Ti       1.91710     13.49383      2.20418        -0.045126     -0.506253     -1.243591
Ti       1.85851     13.51035     15.45996         0.613900     -0.573175     -0.594124
Ti      13.54640      1.90172      2.42214        -0.348926      0.270735     -0.800373
Ti      13.52697      1.92793     15.46656        -0.412906      0.167364     -1.552069
Ti      13.35471     13.36523      2.37456         0.992485      0.084749     -1.593626
Ti      13.42678     13.46187     15.33911        -0.257577     -1.042490     -0.743360
Ti       1.91459      1.94537      6.72995         0.112510     -0.409660     -0.631383
Ti       1.83234     13.40545      6.76728         0.240592     -0.072981     -0.575903
Ti      13.46737      1.88682      6.72893        -1.003184      0.341304     -1.689696
Ti      13.36141     13.44543      6.72550        -0.068123     -0.777459     -1.020960
Ti       1.88724      1.94903     11.00863         0.620154     -0.317811     -1.614478
Ti       1.85590     13.41914     11.03947         0.169436     -0.952077     -1.058233
Ti      13.40739      1.84242     11.14565        -0.638901      0.592898     -1.778437
Ti      13.37760     13.33743     11.14282         0.574280      0.538500     -1.763833
Ti       1.84774      5.73576      2.39260         0.541895     -0.359475     -1.750879
Ti       1.81810      5.70224     15.35867         0.794074      0.251846     -0.574774
Ti      13.39145      5.78423      2.35965         0.438178     -0.617715     -1.542348
Ti      13.38596      5.74586     15.40791         0.648942     -0.532786     -0.620515
Ti       1.77711      5.75672      6.61014         0.816118      0.764456     -0.266717
Ti      13.39156      5.83287      6.64495        -0.589859      0.064285     -1.420060
Ti       1.87412      5.70949     11.03285        -0.035709      1.339908     -0.506592
Ti      13.45526      5.63480     11.21790        -0.479547      0.162332     -0.765946
Ti       1.91607      9.57298      2.33995         0.637241      0.004129     -1.165028
Ti       1.85108      9.58443     15.44527         0.491790     -0.138362     -1.878915
Ti      13.50171      9.54770      2.33450        -1.273639      0.053530     -0.533369
Ti      13.27186      9.53747     15.43019         0.845749      0.353416     -1.202054
Ti       1.89783      9.57236      6.67628         0.804707     -0.322006     -1.206579
Ti      13.39478      9.68227      6.64645        -0.322242     -0.537846     -1.320512
Ti       1.86225      9.57561     11.00871         0.726060      0.404089      0.407123
Ti      13.38982      9.45657     11.10799         0.244545      0.905090     -1.251194
Ti       5.75446      1.85127      2.40094        -0.210136     -0.771908     -2.322918
Ti       5.73963      1.86710     15.29541         0.056488      0.290941      0.465279
Ti       5.72401     13.30549      2.44172        -0.488819      0.824813     -2.183901
Ti       5.66486     13.37472     15.24848         0.092626     -0.161933      0.070130
Ti       5.72320      1.91914      6.69984        -0.441463      0.241513     -0.809130
Ti       5.59801     13.47381      6.60012         0.234510     -0.681949     -0.226841
Ti       5.71974      1.89984     11.06896         0.145390     -0.266444     -0.976687
Ti       5.69562     13.38956     10.99687         0.125553      0.240226      0.244934
Ti       5.71417      5.62139      2.26666         0.456982      1.000469     -1.424741
Ti       5.61926      5.71223     15.45502         0.291825      0.842130     -0.707954
Ti       5.74058      5.82305      6.76791        -0.370695     -0.105046     -1.425860
Ti       5.71795      5.69540     11.04808         0.179416      0.595505     -0.370475
Ti       5.81621      9.52238      2.37256        -1.824639      0.111824     -2.113897
Ti       5.69901      9.53086     15.34185         0.299405     -0.809609     -0.895755
Ti       5.72631      9.62194      6.59693        -0.972476     -0.162559     -0.526368
Ti       5.74749      9.53143     11.04575        -0.982103      0.376567      0.256885
Ti       9.65436      1.88960      2.44996        -0.523596      0.393214     -2.195180
Ti       9.58401      1.91157     15.46212        -0.481797     -0.357020     -0.126230
Ti       9.59948     13.33784      2.38996        -0.711693     -0.006981     -1.656506
Ti       9.49698     13.40978     15.37539        -0.091326     -0.283266      0.133963
Ti       9.53844      1.91043      6.67944         0.940300      0.191409     -0.634923
Ti       9.49122     13.36545      6.68097         0.539905      0.019117     -0.414269
Ti       9.55944      1.92089     11.10695         0.245421      0.828772     -1.182712
Ti       9.53821     13.42221     11.09447        -0.061890      0.035599     -1.810729
Ti       9.49406      5.77941      2.25649         0.500843     -0.591783      0.230796
Ti       9.54618      5.75669     15.45504        -0.537427     -0.597304     -1.574861
Ti       9.49870      5.71059      6.66493         1.348678      0.411136     -1.234718
Ti       9.64165      5.69928     11.08400        -0.466179     -0.887298     -0.036644
Ti       9.55868      9.54301      2.32898         0.437522     -0.225363     -0.483124
Ti       9.51625      9.55626     15.39825        -1.194280      0.178204     -1.408465
Ti       9.56840      9.57166      6.70853         1.257839      0.153441     -1.185299
Ti       9.51871      9.52499     10.94811         0.229413     -0.658055      0.242646
O       2.08264      1.82913      0.49776        -0.423435      0.476143      2.691297
O       2.09550      1.81515     13.61288        -0.772852      0.143444      0.558626
O       1.79846     13.47240      0.35310         0.305277     -0.192264      2.303731
O       1.79919     13.53112     13.62891         0.211509     -0.252619      1.440106
O      13.58277      1.99977      0.62820        -0.542024     -0.427704      0.619370
O      13.48332      1.85549     13.59478         0.008401      0.110520      2.226968
O      13.35417     13.35967      0.52794        -0.084013      0.040716      1.924448
O      13.54212     13.50178     13.52719        -0.511969     -0.135035      1.711246
O       1.90790      1.95028      4.91457         0.009779      0.010162      1.417956
O       1.93602     13.28254      4.95161        -0.359423      0.533370      1.724472
O      13.54850      1.83003      4.87854        -0.238122     -0.042874      1.976494
O      13.41077     13.39563      4.88632         0.057613      0.266728      1.639919
O       2.00320      1.90951      9.14164        -0.608195      0.154694      2.180433
O       1.95690     13.39376      9.19797        -0.359333     -0.007462      1.489627
O      13.46428      1.99138      9.26743        -0.185161     -0.396120      1.784631
O      13.21993     13.39571      9.28741         0.415757      0.127787      1.977257
O       1.81193      5.63668      0.56525        -0.008137      0.197215      1.662643
O       1.92843      5.83188     13.55252        -0.597131     -0.490488      1.559506
O      13.45692      5.70885      0.45030        -0.306436      0.216941      2.768638
O      13.54532      5.61231     13.59149        -0.502208      0.075782      1.258916
O       1.74948      5.71068      4.78014         0.591885      0.086161      1.884066
O      13.48912      5.80776      4.85112        -0.220118     -0.186667      1.256538
O       1.79169      5.89726      9.20706         0.113896     -0.496628      1.713220
O      13.36818      5.66952      9.37640         0.183785     -0.041830      1.162685
O       1.85874      9.50537      0.48165        -0.314203      0.130397      1.530394
O       1.86404      9.53744     13.59229        -0.302610      0.201412      2.303422
O      13.28359      9.44974      0.47619         0.532782      0.310220      1.839319
O      13.30124      9.51969     13.61731        -0.173858      0.110207      1.035252
O       2.03134      9.59673      4.80089        -0.759426     -0.065322      2.170517
O      13.40090      9.62923      4.79229        -0.063569      0.040953      2.337912
O       1.83848      9.61075      9.21991        -0.145362     -0.203889      0.112671
O      13.24403      9.55992      9.25549         0.645931     -0.145376      2.252104
O       5.68217      1.56825      0.52252         0.277489      1.037525      2.456228
O       5.64214      1.89625     13.51307         0.267083     -0.337940      1.008842
O       5.71256     13.31039      0.55493         0.123995     -0.080942      2.328934
O       5.68416     13.38692     13.43580         0.247100      0.055482      1.501092
O       5.64661      1.81340      4.84661         0.540523      0.476900      1.735289
O       5.41475     13.52649      4.77683         1.219266     -0.461839      2.195523
O       5.72832      2.01883      9.24117        -0.255302     -0.249616      1.626818
O       5.67705     13.39394      9.20815         0.171481      0.203373      0.709380
O       5.81284      5.75757      0.43278        -0.544879     -0.293693      1.977787
O       5.65594      5.72928     13.65636        -0.015243     -0.242086      0.834040
O       5.81249      5.93568      4.92214        -0.038415     -0.550595      1.710515
O       5.70200      5.78025      9.15390        -0.052460     -0.115670      2.380077
O       5.60947      9.54172      0.49384         0.568163      0.182733      2.186192
O       5.75622      9.48639     13.51399        -0.216696      0.632706      1.669812
O       5.83179      9.33778      4.78020        -0.422299      0.664071      1.628088
O       5.67553      9.46843      9.25284         0.365518      0.319326      1.292401
O       9.60324      1.71963      0.60355         0.241558      0.265696      2.144271
O       9.61390      2.04742     13.68479        -0.338654     -0.642157      0.689004
O       9.47996     13.39787      0.51707         0.594455     -0.156623      2.231975
O       9.38505     13.28766     13.57749         0.578291      0.433989      0.587326
O       9.59201      2.16878      4.82754        -0.441942     -0.912369      1.736961
O       9.59109     13.14412      4.90591        -0.132543      0.426471      1.010704
O       9.64191      1.93212      9.31325        -0.565862     -0.208047      1.106131
O       9.48773     13.50091      9.23894        -0.017410     -0.043745      2.237534
O       9.41292      5.88334      0.41751         0.740262     -0.501241      1.479403
O       9.34040      5.63641     13.59492         0.962571      0.214202      2.164509
O       9.66022      5.61875      4.84144        -0.749246      0.015832      1.956632
O       9.60607      5.62773      9.32256         0.163827      0.196959      0.121777
O       9.45247      9.49791      0.53486         0.596341     -0.098731      0.959302
O       9.47478      9.60433     13.55594         0.374270     -0.157691      2.057607
O       9.71374      9.79191      4.85693        -0.892098     -0.617105      2.279482
O       9.57947      9.59907      9.15927        -0.392171     -0.376392      0.777281
O       3.90303      1.76725      2.86691        -0.828690      1.114492     -0.818321
O       3.93611      1.94067     15.88793        -0.747037     -0.736862     -0.776836
O       3.71851     13.49694      2.75394         0.756033     -0.241924     -0.740574
O       3.83488     13.20538     15.76917        -0.539931      1.122509     -0.684097
O       0.03220      1.88321      2.81945         0.514278      0.026665     -0.398572
O       0.06130      1.75041     15.83002        -1.078207      0.955612     -0.540979
O      15.33840     13.32794      2.77027         0.522517      1.008976     -0.798958
O      15.31078     13.48783     15.87297        -0.272662     -0.437888     -0.587912
O       3.77740      1.99921      7.15766         0.347089      0.018169     -0.710741
O       3.77730     13.38838      7.27832         0.289358      1.002223     -1.170333
O      15.30617      1.95644      7.21013         0.601943     -0.381664     -0.774395
O      15.25212     13.33056      7.19333         0.810394      0.530990     -0.616828
O       3.71118      1.89029     11.53194         0.969661     -0.209423     -1.018911
O       3.77871     13.36611     11.46659         0.126141      0.226667     -0.515352
O       0.00176      1.79919     11.49452        -0.146188      0.999022     -0.725505
O      15.30265     13.28059     11.43607         0.095857      0.686470     -0.390237
O       3.92252      5.72518      2.77664        -0.933144     -0.174773     -0.187325
O       3.75671      5.64908     15.91687         0.075302      0.225945     -0.539126
O       0.02783      5.68847      2.80681        -1.084937      0.254681     -0.565717
O      15.24776      5.63234     15.81495         1.061441      0.272210     -0.255338
O       3.76753      5.89465      7.07268        -0.193016     -0.573240     -0.681221
O      15.20380      5.84830      7.17321         0.700353     -0.569398     -0.581213
O       3.72637      5.78045     11.55247         1.199704     -0.273749     -1.226047
O       0.00797      5.64484     11.57341        -0.322431      0.027953     -0.613425
O       3.76766      9.50697      2.75681         0.889802     -0.059679     -0.399748
O       3.72430      9.51065     15.86681         0.307750      0.303430     -0.604792
O      15.35991      9.61990      2.79989         0.424726     -0.375123     -0.870466
O      15.20868      9.49637     15.78400         0.411936      0.103663     -0.019210
O       3.81595      9.51292      7.07326        -0.484616     -0.328015     -0.430706
O      15.26681      9.66045      7.06046         0.215667      0.040954     -0.293952
O       3.73449      9.47988     11.49471         1.265991      0.858685     -0.641085
O      15.27826      9.62917     11.48057        -0.873484     -0.184469     -0.379096
O       7.59940      1.91260      2.88548         1.095370     -0.281823     -0.474427
O       7.63509      1.92941     15.87472         0.004247     -0.430494     -0.823831
O       7.74512     13.30965      2.87519        -0.577333     -0.065038     -0.460561
O       7.54605     13.35396     15.87715         0.373228     -0.067162     -1.176906
O       7.60311      1.93465      7.18053         0.461939      0.083040     -0.819785
O       7.52060     13.37964      7.10315         0.047756      0.081728     -0.568457
O       7.63211      1.82136     11.53388         0.263981      0.124937     -0.703153
O       7.70391     13.44637     11.50685        -0.370749      0.190980     -0.623614
O       7.68817      5.60165      2.74910        -0.406870      0.458622     -0.204460
O       7.57165      5.74506     15.86533         0.749428     -0.329582     -0.641153
O       7.68067      5.82145      7.24121        -0.258475     -0.029095     -1.002023
O       7.51690      5.73265     11.60141         0.412537     -0.160514     -1.269386
O       7.62072      9.62274      2.80208         1.119289      0.005978     -0.489629
O       7.61564      9.40401     15.83729         0.090220      0.747807     -0.632426
O       7.57546      9.60203      7.15127         0.915298      0.316925     -0.756043
O       7.66893      9.46320     11.42807        -0.306599     -0.017176     -0.805966
O      11.56320      1.92600      2.95407        -0.387042     -0.407551     -1.394656
O      11.46950      1.92922     15.90501         0.621157     -0.605931     -0.394850
O      11.52156     13.40013      2.84092        -0.312508      0.036947     -0.716440
O      11.44007     13.36066     15.66800         0.129233      0.401431      0.042941
O      11.38296      1.86993      7.07869         0.887408      0.162969     -0.476879
O      11.37671     13.47139      7.22398         0.967877     -0.078930     -1.027612
O      11.44468      1.96431     11.61864         0.747571     -0.634510     -0.616154
O      11.42162     13.39109     11.61731         0.056492      0.023365     -0.651076
O      11.51968      5.90630      2.68573         0.077813     -0.801413     -0.717720
O      11.49831      5.60607     15.80692        -1.004642      0.277843     -0.155539
O      11.53655      5.74931      7.15395        -0.443802     -0.405002     -0.457946
O      11.49036      5.61757     11.63809         0.762795      0.126694     -0.590422
O      11.51695      9.41418      2.80543         0.296634      0.789325     -1.375589
O      11.35887      9.54497     15.86983         0.459262     -0.046033     -0.203839
O      11.42744      9.66659      7.16436         0.349068      0.214447     -0.620548
O      11.40966      9.49423     11.48351         1.089860      0.053185     -0.297953
O       1.88656      3.82807      2.84536         0.739692     -0.940787     -0.422553
O       1.97508      3.79315     15.80196        -0.689593     -0.363786     -0.321141
O       1.96295      0.02620      2.78132        -0.962690     -0.569720     -0.488592
O       1.96554      0.05029     15.90011         0.189732     -1.379202     -0.820160
O      13.46753      3.80322      2.91321        -0.246169      0.725345     -1.036071
O      13.36403      3.77885     15.95281         0.579492     -0.870781     -0.861931
O      13.45910     15.35196      2.77728        -0.088215     -0.761611     -0.334177
O      13.44976     15.31357     15.95846        -0.880648      0.544216     -1.130205
O       1.82781      3.93700      7.10641        -0.031410     -0.622705     -0.447655
O       1.88971     15.35627      7.13251        -0.261287     -0.032252     -0.533758
O      13.45725      3.79323      7.06548        -0.525614      0.425008     -0.482670
O      13.46621     15.35977      7.23269        -0.417640     -0.062230     -0.815423
O       1.93051      3.84542     11.45813        -0.429065     -0.825298     -0.589520
O       1.84958     15.27798     11.41767         0.254822      0.681044     -0.393688
O      13.38404      3.70509     11.65858         0.694547      0.533119     -0.748739
O      13.37544     15.33055     11.48315        -0.237986     -0.014223     -0.274619
O       1.95482      7.63309      2.75760        -0.533308      0.158286     -0.404367
O       1.94956      7.54074     15.90313        -1.019820      0.640013     -0.495894
O      13.53930      7.62964      2.91285         0.095971      0.306928     -1.374602
O      13.29417      7.61374     15.80463        -0.059402      0.168941     -0.268415
O       1.68936      7.65266      7.04568         0.400488      0.600761     -0.447630
O      13.25383      7.76546      7.08921         0.756428     -0.406252     -0.454306
O       1.81850      7.78007     11.52893        -0.406834     -1.990330     -0.712542
O      13.45258      7.53158     11.61507        -0.420860      1.160125     -0.947640
O       2.10042     11.51056      2.72562        -1.610300      0.168803     -0.992825
O       1.80277     11.44061     15.80927        -0.370603      0.522521     -0.243045
O      13.52176     11.43237      2.78325        -0.936940      0.435623     -0.957836
O      13.33682     11.49736     15.82253         0.251202      0.074614     -0.328563
O       1.98848     11.46646      7.21183        -0.834053      0.064510     -0.790058
O      13.31719     11.58733      7.21674        -0.066247     -0.758195     -0.794408
O       1.90777     11.47405     11.55374        -0.175988      0.485987     -0.408105
O      13.37897     11.51798     11.60815        -0.433292     -1.173107     -0.727022
O       5.73342      3.77516      2.68028        -0.189656     -0.431017      0.047772
O       5.70192      3.77421     15.89466         0.635926     -0.103313     -0.964340
O       5.81420     15.17709      2.75761         0.210473      1.327700      0.072067
O       5.78224     15.24852     15.72694        -0.597143      0.540467     -0.702905
O       5.71125      3.91603      7.09460         0.043914     -0.435549     -0.504988
O       5.69672      0.09577      7.15728        -0.267722     -1.173250     -0.557482
O       5.78759      3.76488     11.57547        -0.698444      0.812733     -1.115423
O       5.64853     15.31235     11.41701         0.318533      0.441051     -0.308319
O       5.79479      7.64591      2.68545         0.231751     -0.559988     -0.187014
O       5.58083      7.66713     15.78836         0.196406     -0.532934     -0.080224
O       5.74497      7.72961      7.28174         0.258215     -0.418672     -1.314567
O       5.68226      7.69120     11.64420         0.257042     -1.206374     -1.726182
O       5.63481     11.43916      2.87165         0.475351      0.176545     -0.506134
O       5.65728     11.40562     15.75185         0.711635      0.393189     -0.462608
O       5.54300     11.49911      6.87540         0.707784      0.222422     -0.086828
O       5.72695     11.55017     11.41278         0.220903     -1.232562     -0.312073
O       9.64563      3.82263      2.67475         0.087944     -0.111580     -0.321248
O       9.53219      3.74427     16.02499         0.761356      0.758882     -1.272349
O       9.57400     15.31074      2.95399         0.167512      0.017209     -0.843783
O       9.45415     15.25046     15.76323         0.541957      0.878831     -0.397624
O       9.50330      3.87377      7.23249         0.253739     -0.729110     -1.003293
O       9.50082     15.30222      7.03103        -0.478745      0.859980     -0.347426
O       9.56755      3.82568     11.58559        -0.550755     -0.862133     -0.375239
O       9.68054     15.35589     11.60217        -0.993847     -0.400532     -0.838578
O       9.50458      7.62951      2.79397        -0.099555      0.063305     -0.627753
O       9.49589      7.55183     15.73501         0.743949      1.230919     -0.071488
O       9.70682      7.67024      6.98875        -0.915399      0.132114     -0.026769
O       9.67343      7.48787     11.45556        -0.713816      2.132356     -0.246077
O       9.68858     11.37417      2.72304        -0.169018      1.442856     -0.468957
O       9.44754     11.47698     15.89287         0.505568     -0.259469     -0.847314
O       9.57276     11.54695      7.35397        -0.528257     -0.399937     -1.326685
O       9.51767     11.32914     11.40718         0.183616      2.196083     -0.264162
