  # total energy = -7882.74346296 
CRSYTAL
PRIMVEC
    15.3600000000000000    0.0000000000000000    0.0000000000000000
     0.0000000000000000   15.3600000000000000    0.0000000000000000
     0.0000000000000000    0.0000000000000000    17.440000000000000
PRESSURE
0.7107 0.825523 2.30655 0.279157 0.211492 -0.036575
PRIMCOORD
320 1
Pb       3.75877      3.86259      4.23763         0.399653     -0.310704     -0.150981
Pb       3.78138      3.86687     17.33681        -0.042853      0.439424     -0.089889
Pb       3.82902      0.01770      4.23646         0.155709     -0.145946     -0.580689
Pb       3.90590      0.08633      0.03432        -0.374481     -0.416517      0.019882
Pb      15.23809      3.86358      4.29903         0.568228     -0.044877      0.293902
Pb      15.24194      3.81546     17.41132         0.760441      0.298499     -0.271965
Pb      15.21999     15.27831      4.29894         0.686987     -0.197542     -0.360336
Pb      15.34198     15.31707      0.03128         0.513291      0.056397     -0.306726
Pb       3.86697      3.83164      8.66800         0.180317     -0.060232     -0.079914
Pb       3.79577     15.27046      8.79030         0.275242      0.096205     -0.519045
Pb       0.09878      3.67068      8.67074        -0.223147      0.318235     -0.067535
Pb       0.10785     15.34129      8.61665        -0.381011      0.288053     -0.019685
Pb       3.73927      3.90903     13.08066         0.194877      0.152075     -0.517066
Pb       3.89405     15.26436     13.23570         0.076609     -0.176421     -0.862114
Pb      15.25759      3.83612     13.02012         0.023418     -0.081107     -0.546338
Pb       0.00708      0.04425     13.00242        -0.010532      0.160953     -0.057763
Pb       3.82246      7.63000      4.26336        -0.255142      0.313566      0.621110
Pb       3.79739      7.75127      0.00074        -0.004921     -0.809660     -0.584726
Pb      15.26100      7.51903      4.34647         0.010220      0.621262     -0.112559
Pb       0.05124      7.71855     17.37246        -0.418549     -0.453920      0.023019
Pb       3.89040      7.54630      8.75720         0.032179      0.230931     -0.824103
Pb       0.00460      7.63925      8.74148         0.016765      0.648376     -0.867225
Pb       3.78530      7.78263     13.07119        -0.253250     -0.618505     -0.549272
Pb       0.04145      7.70560     12.92109        -0.302293     -0.053526      0.394395
Pb       3.77572     11.44520      4.29167         0.452342      0.552059     -0.005752
Pb       3.82228     11.41143     17.43257        -0.117583      0.860719     -0.013203
Pb      15.35263     11.47598      4.27915        -0.284398      0.449894      0.010695
Pb       0.04107     11.42594      0.01792        -0.106437      0.516508     -0.133023
Pb       3.71162     11.51639      8.68853         0.266410      0.226299     -0.755630
Pb       0.03535     11.48303      8.62913         0.151293      0.020778     -0.563021
Pb       3.76831     11.55268     13.04251        -0.309371      0.502665      0.037811
Pb      15.20129     11.43102     13.12293         0.325710      0.330841     -0.543568
Pb       7.62093      3.87748      4.37520         0.203889     -0.140315     -0.534782
Pb       7.67601      3.87132     17.28198        -0.389594      0.198751      0.385888
Pb       7.62638      0.06937      4.18944         0.539261     -0.556612      0.219787
Pb       7.76807     15.31767      0.00162         0.043942     -0.111254     -0.322757
Pb       7.69431      3.68129      8.75346         0.695938      0.491504     -0.338035
Pb       7.63849     15.28795      8.64783         0.444825     -0.004160     -0.172621
Pb       7.53863      3.70697     13.12823         0.476431      0.533599     -0.285563
Pb       7.64824     15.16790     13.17707        -0.475676     -0.140342     -0.803809
Pb       7.57334      7.71113      4.32605         0.145607      0.160099     -0.112671
Pb       7.79708      7.54654     17.40076        -0.393983      0.062427     -0.229831
Pb       7.54293      7.68193      8.68108         0.618666     -0.164419     -0.035174
Pb       7.60530      7.60859     12.99268         0.212195      0.316490      0.186702
Pb       7.67696     11.52403      4.29634        -0.340354      0.117814      0.023563
Pb       7.72995     11.47468      0.01535        -0.090231      0.133609     -0.527940
Pb       7.67505     11.37984      8.73834        -0.567021      0.579029     -0.285629
Pb       7.59123     11.42991     13.10988         0.224071      0.587040     -0.160132
Pb      11.49653      3.85973      4.40734        -0.266931      0.096934     -0.407876
Pb      11.37117      3.81148     17.30008         0.607633     -0.169092     -0.051120
Pb      11.39529      0.12129      4.26377        -0.085030     -0.882220      0.188207
Pb      11.68619      0.01238     17.32122        -0.615035     -0.240670     -0.131726
Pb      11.59813      3.77499      8.75035        -0.611516     -0.447052     -0.781452
Pb      11.48594     15.20667      8.62987         0.130718      0.956953     -0.087841
Pb      11.44778      3.88729     13.00944         0.545631     -0.409347     -0.422859
Pb      11.47825     15.29536     13.01575         0.450148      0.350267     -0.148059
Pb      11.47214      7.74066      4.34897         0.249802      0.193467     -0.449760
Pb      11.49941      7.60259     17.38922         0.209986      0.157870     -0.438448
Pb      11.42292      7.57294      8.71203        -0.221621      0.701373     -0.555373
Pb      11.60279      7.74764     12.85782         0.047121     -0.102504      0.657791
Pb      11.42591     11.52909      4.44330         0.260606     -0.026236     -0.748655
Pb      11.63359     11.55393      0.01671        -0.457877      0.138020     -0.564660
Pb      11.40707     11.52807      8.76094         0.172311     -0.102548     -0.281547
Pb      11.38554     11.48425     13.00033         0.354176      0.207463     -0.014202
Ti       1.83163      1.97145      2.34389         1.229824     -1.111633      0.495461
Ti       1.94142      1.83967     15.34320         0.378205      0.781655      0.845229
Ti       1.96555     13.41771      2.29341         0.224091      0.227502      1.286954
Ti       1.88799     13.42725     15.45995         0.776044     -0.072180      0.294718
Ti      13.38383      1.94694      2.33277         0.791732     -0.515128      0.165602
Ti      13.56356      1.98018     15.37714        -0.862067     -0.930548     -0.642343
Ti      13.41538     13.44088      2.22959         0.325095     -0.246032      2.171121
Ti      13.51618     13.45160     15.31650        -0.858977     -0.048475      1.083741
Ti       2.09272      1.95068      6.58481        -0.698574     -0.222066      0.302561
Ti       2.00254     13.54294      6.54538        -0.398174     -1.076755      1.095471
Ti      13.51294      1.89441      6.68621        -0.577632      0.068939      1.217957
Ti      13.48976     13.41791      6.68687        -0.402672      0.202924      1.139701
Ti       2.08714      1.91900     11.05860        -1.117784     -0.311808      1.356545
Ti       1.77746     13.45459     10.99896         1.552286     -0.099022      1.678888
Ti      13.45653      1.92499     10.97935         0.040072     -0.285205      0.845120
Ti      13.46303     13.54643     10.91224        -0.172518     -0.845004      1.302420
Ti       1.89658      5.76421      2.23328        -0.349147      0.423548     -0.534891
Ti       1.81539      5.72159     15.30539         1.568217     -0.003469      1.572807
Ti      13.43171      5.66040      2.20524        -0.460188      2.126744      0.603643
Ti      13.46057      5.78644     15.34957         0.286671      0.588521      0.795304
Ti       1.86808      5.79091      6.73342         0.490666      0.262954      0.471816
Ti      13.42058      5.77974      6.72549         0.201459     -0.331327      2.346619
Ti       1.86798      5.78465     10.96739         0.822934      0.309375      2.134534
Ti      13.42270      5.80641     10.81962         0.567198     -0.327766      4.125099
Ti       1.77958      9.56916      2.32312         0.536239      0.331094      0.655792
Ti       1.87982      9.55457     15.39217        -0.628290      0.621588     -0.735363
Ti      13.36101      9.61995      2.25183        -0.270967     -0.266084      1.031536
Ti      13.36133      9.59446     15.41441         0.263202      0.072843      0.317816
Ti       1.88381      9.61074      6.59201        -0.719519      0.027104      0.911824
Ti      13.34930      9.67703      6.70641         0.816282     -0.997592      0.953915
Ti       1.85099      9.64750     10.95671         0.242645     -0.490712      1.224342
Ti      13.43844      9.68964     10.92379        -0.139975     -0.260941      0.993896
Ti       5.82580      1.94473      2.24813        -0.570814      0.255214      1.627095
Ti       5.78558      1.94753     15.46627        -0.619560     -0.611163      0.531869
Ti       5.88146     13.42780      2.25465        -1.442205     -0.356426      1.167016
Ti       5.74701     13.39633     15.55193         0.073326      0.305751     -0.708386
Ti       5.87545      1.85692      6.65900        -0.793768      0.098148      0.492496
Ti       5.78337     13.46629      6.65575        -0.036642     -1.725647     -0.593693
Ti       5.83214      1.93289     10.99307        -0.567296     -0.602564      1.002062
Ti       5.72260     13.44529     10.96515        -0.103394      0.634658      1.094915
Ti       5.80141      5.74976      2.32638        -0.165398     -0.258233     -0.183023
Ti       5.74071      5.83989     15.34656        -0.859221     -0.362862      2.205543
Ti       5.87392      5.63096      6.64944        -0.420280      1.539846      0.539735
Ti       5.76315      5.78955     11.02636        -0.909454     -0.452327      0.273685
Ti       5.66637      9.57243      2.27243         0.438257      0.288744      0.481822
Ti       5.74495      9.56026     15.38381         0.222770      0.378121      1.520898
Ti       5.64394      9.59080      6.73479         0.378744      0.733882     -0.095427
Ti       5.66864      9.67764     11.09277         0.372173     -0.624715     -0.069798
Ti       9.65529      1.94907      2.19859        -0.974091     -0.764757      1.903010
Ti       9.62114      1.83475     15.30647         0.401326     -0.719044      1.757877
Ti       9.72838     13.37836      2.25261        -1.739419      0.559906      1.550622
Ti       9.61892     13.38451     15.41208         0.634550     -0.045821      1.171285
Ti       9.68090      1.92665      6.59306        -0.991055     -0.041611      1.580164
Ti       9.60525     13.41201      6.65653        -0.818489      0.707695     -0.098339
Ti       9.58238      1.92744     11.06853         0.554251     -0.443289      0.032635
Ti       9.67382     13.48286     10.98959        -1.481947     -0.442874      0.588692
Ti       9.61851      5.73667      2.37592        -0.063326     -0.011897      0.693956
Ti       9.65010      5.64390     15.26939        -0.452904      1.528060      1.486499
Ti       9.63784      5.77385      6.60278        -1.267878     -0.379037      0.881703
Ti       9.60480      5.76143     11.01329        -1.108359     -0.758710     -0.496350
Ti       9.56009      9.53316      2.21051        -0.247515      0.761622      1.880920
Ti       9.57922      9.56076     15.42915        -0.154329     -0.226129     -0.836921
Ti       9.55464      9.62456      6.77097        -0.398100     -0.886303      1.564101
Ti       9.53038      9.59964     11.11682         0.050738      0.726555     -0.601805
O       1.91716      1.86983      0.63284        -0.268287      0.334351     -0.937103
O       2.00350      1.68122     13.60555        -0.104447      0.778210     -0.293756
O       1.90766     13.30297      0.58772        -0.259473      0.485961     -1.567307
O       2.01186     13.29294     13.70029        -0.519621      0.520508      0.558495
O      13.59275      1.96204      0.59454        -0.581319      0.025388     -0.544775
O      13.49447      1.87663     13.63346         0.062612      0.359721     -0.043637
O      13.41418     13.52698      0.52097         0.162931     -0.083485     -0.981226
O      13.54722     13.39998     13.57254        -0.330077     -0.164003      0.126595
O       2.08379      1.88653      4.80083        -0.235494      0.471424      0.745372
O       1.97795     13.54328      4.80549        -0.161792     -0.105882     -0.075151
O      13.35054      2.04400      4.96455         0.342459     -0.155604     -0.973935
O      13.37520     13.31303      4.97949         0.251050      0.217965     -1.301002
O       2.01041      1.95944      9.33196         0.089603     -0.129780     -0.919339
O       2.09427     13.44698      9.29152        -0.685341      0.288472     -0.893828
O      13.47605      1.85817      9.24241         0.063233      0.223565     -0.837902
O      13.45716     13.54912      9.16503        -0.028679     -0.043238      0.279827
O       1.91694      5.78712      0.46179        -0.117002      0.047923      0.681474
O       1.88384      5.79791     13.58560        -0.173864     -0.081761     -0.907179
O      13.44396      5.73801      0.46303        -0.094838     -0.303647     -0.058407
O      13.46579      5.85464     13.63217        -0.061007     -0.231799     -0.830066
O       1.86832      5.73867      4.98777        -0.373191     -0.188352     -0.322350
O      13.66313      5.62229      5.04391        -0.574375     -0.114227     -2.132094
O       1.94358      5.87870      9.24920         0.093316     -0.257212     -1.389128
O      13.41667      5.88301      9.13886        -0.294988     -0.365435     -1.251749
O       1.75058      9.59587      0.54784         0.473483     -0.167434     -0.208214
O       1.80425      9.69463     13.59552         0.177128     -0.313107      1.264210
O      13.27704      9.55280      0.50801         0.334057      0.039831      0.046890
O      13.43969      9.74065     13.62949        -0.277853     -0.267782      0.280569
O       1.73760      9.55333      4.86553         0.364680      0.280037     -0.786912
O      13.25257      9.67577      4.98607         0.221752      0.266090     -1.210689
O       1.76044      9.60818      9.23901         0.467565     -0.116938     -1.420608
O      13.39071      9.46718      9.22191         0.097242      0.505734     -0.756908
O       5.81376      1.97625      0.54685        -0.060631      0.125422     -1.784734
O       5.71551      1.81634     13.73166         0.263860      0.460517     -0.155165
O       5.83247     13.35445      0.51037         0.378522     -0.051885     -0.148811
O       5.70897     13.49502     13.74919         0.248977      0.022546      0.282186
O       5.76806      2.00728      4.92782         0.262615     -0.341297     -0.462766
O       5.83443     13.47987      4.87364        -0.116702     -0.032706      0.256063
O       5.98970      1.79405      9.26436        -0.445931      0.084309     -0.620306
O       5.67154     13.38460      9.18979        -0.018298      0.260154      0.969296
O       5.90968      5.73665      0.58313        -0.353714      0.039680     -0.293321
O       5.76748      5.75618     13.64980        -0.028481      0.185701     -1.754437
O       5.84502      5.79197      4.88128        -0.114894     -0.282588     -0.021615
O       5.91007      5.86808      9.26734        -0.719988     -0.140212      0.025376
O       5.61830      9.56647      0.50185         0.215017      0.152855      0.584201
O       5.81285      9.60308     13.64598        -0.276265     -0.142232     -0.582856
O       5.66398      9.54969      4.99347         0.240098     -0.264016     -0.932308
O       5.74188      9.61257      9.33361        -0.437970      0.234919      0.323171
O       9.88195      1.85194      0.50712        -0.587293      0.556951     -1.504557
O       9.55437      1.91698     13.59598         0.201729     -0.187059     -0.874928
O       9.71840     13.39372      0.54960        -0.306795      0.005998     -1.769881
O       9.63627     13.42821     13.67132        -0.157327      0.129961     -0.936886
O       9.59325      1.82160      4.86659         0.253174      0.644869     -0.775368
O       9.54342     13.40832      4.88283         0.341261     -0.238940      0.606025
O       9.56718      1.91905      9.33276        -0.264907      0.052605     -0.906780
O       9.68926     13.45638      9.22852        -0.068957     -0.014087     -0.078035
O       9.56780      5.83763      0.61377         0.248443     -0.503818     -0.498858
O       9.56543      5.57552     13.57543         0.210006      0.237373     -1.275400
O       9.60242      5.69795      4.81315         0.173694      0.118575      0.159343
O       9.48975      5.73510      9.23940         0.544417     -0.029775      1.642699
O       9.51806      9.47478      0.49408         0.220431      0.040270     -1.288905
O       9.57690      9.65905     13.64372         0.153153     -0.007479     -0.196430
O       9.65553      9.64791      5.08790        -0.281520     -0.137603     -2.092264
O       9.55538      9.68531      9.36329         0.076206     -0.176773     -0.617043
O       3.90551      1.99842      2.73016        -0.365587     -0.200319     -0.202319
O       3.83083      1.94178     15.91268         0.797187     -0.311018     -0.238965
O       3.85546     13.41562      2.63013         0.894444      0.108677      0.248387
O       3.92185     13.45847     15.96377        -1.657697     -0.232341     -0.166090
O      15.30124      1.93497      2.75390        -0.129185     -0.058969      0.209452
O       0.07920      1.94097     15.77056        -0.241846      0.136894      0.267779
O      15.33377     13.38515      2.72546        -0.188703      0.626338      0.046445
O       0.01230     13.47377     15.88338         0.059405     -0.071142     -0.286771
O       3.89854      1.92231      7.15879         0.407826      0.224834     -0.226541
O       3.81992     13.40742      7.12852         0.253749      0.388513     -0.290622
O       0.12746      1.93140      7.04375        -0.560857     -0.162404     -0.161309
O       0.00636     13.56175      7.12631         1.129774     -0.504322     -0.528610
O       3.88455      1.93588     11.46428        -0.068568     -0.500530     -0.009958
O       3.69764     13.47297     11.58391         1.225389     -0.340624     -0.617386
O      15.35977      1.94271     11.44588         0.294042      0.007716      0.114847
O      15.29296     13.45081     11.48714         0.263941      0.039216     -0.619883
O       3.74358      5.83805      2.71049         0.464564     -0.284464     -0.200517
O       3.80220      5.82705     15.75237         0.292574      0.079823      0.107883
O      15.27432      5.68237      2.70215         0.487686      0.263979      0.061410
O       0.01946      5.75545     15.84959        -0.423071     -0.090492     -0.195720
O       3.90311      5.74491      7.10397        -0.098967     -0.104604      0.183604
O      15.32458      5.68808      7.24797         0.925701      0.261795     -0.408602
O       3.80380      5.94689     11.47447         0.391948     -0.623715     -0.214744
O      15.30168      5.85479     11.40327         0.127481     -0.630391     -0.644869
O       3.74055      9.59407      2.83235         0.341679     -0.701553     -0.813453
O       3.77496      9.60352     15.85597        -0.212599     -0.056143     -0.470675
O      15.30281      9.73438      2.73965        -0.725623     -0.450182     -0.380976
O      15.27780      9.54424     15.85699         0.492697      0.727796     -0.242185
O       3.73696      9.67253      7.02246         0.299942     -0.290757      0.461754
O      15.29740      9.58310      7.08221         0.258145      0.244081      0.161026
O       3.75137      9.62065     11.51550         1.020608      0.033631     -0.398585
O      15.34885      9.53138     11.35155        -0.893794      0.481665      0.210501
O       7.76690      1.91547      2.56291        -1.296297      0.183145      0.221998
O       7.68502      1.87958     15.80801         0.641465      0.033271     -0.072492
O       7.72464     13.39800      2.72127        -0.570645      0.020576     -0.337707
O       7.71837     13.40070     15.87989         0.426893      0.145197      0.043555
O       7.70943      1.87182      7.06219         0.468343     -0.244593      0.066769
O       7.64397     13.36311      7.12063         1.185221      0.495877      0.007228
O       7.70301      2.05483     11.51831        -1.163646     -0.550621     -0.086585
O       7.57222     13.47383     11.48677         0.730466      0.013668     -0.356110
O       7.66057      5.78445      2.69236         0.382918      0.091592      0.454795
O       7.72699      5.77775     15.77530         0.122789     -0.161087     -0.134499
O       7.73089      5.83365      7.04257        -0.722343     -0.265542     -0.257544
O       7.59242      5.71278     11.54189         0.816295     -0.132368     -0.178208
O       7.67804      9.54377      2.70064        -0.742980      0.018482     -0.122092
O       7.63808      9.54705     15.75843         0.287565      0.109387      0.299697
O       7.57571      9.62192      7.21601         1.352187     -0.185217     -0.345786
O       7.64633      9.68330     11.46111        -0.499532     -0.304012      0.267159
O      11.50188      1.96192      2.74427         0.693414      0.041984      0.134789
O      11.60651      1.88206     15.82548        -0.278322      0.598270     -0.492505
O      11.48721     13.47198      2.72335         1.384233     -0.157602      0.201498
O      11.57425     13.44370     15.83105         0.272722      0.012399     -0.369341
O      11.51103      1.88794      7.05219         0.556510      0.478559      0.118223
O      11.55070     13.40204      7.14135        -0.837176     -0.237189     -0.337682
O      11.50561      1.85061     11.32880         0.426148      0.560807      0.667294
O      11.50290     13.46859     11.45740         0.503985     -0.048006     -0.306952
O      11.55960      5.75937      2.72514        -0.457409     -0.233882      0.102715
O      11.58215      5.78980     15.76563        -1.176715     -0.921308     -0.088514
O      11.43219      5.67686      7.17019         1.229417      0.100584     -0.345066
O      11.51815      5.71165     11.46226         0.108963      0.390254     -0.744068
O      11.42348      9.59505      2.76885         0.604658      0.180410     -0.160805
O      11.44958      9.58443     15.83639         0.916470     -0.066112     -0.046825
O      11.48528      9.53083      7.08299        -0.322369      0.496219      0.760374
O      11.48224      9.65046     11.35673         0.632789     -0.223266      0.487461
O       1.91631      3.88812      2.54396        -0.177819     -0.165436      0.742319
O       2.08852      3.84137     15.70030        -0.965439     -0.339343     -0.200934
O       1.95379     15.33761      2.66455        -0.388019      0.716033      0.235671
O       1.95556      0.04226     15.95105        -0.051555     -0.955629     -0.324448
O      13.41356      3.87147      2.69546        -0.204516     -1.181970      0.227110
O      13.56604      3.88259     15.63514        -0.393676     -0.621794      0.613782
O      13.40363     15.34211      2.82153        -0.021432      0.701981     -0.512685
O      13.54574     15.35046     15.71453        -0.117214      0.311097      0.377434
O       1.98826      3.83233      7.22705        -0.068967     -0.100716     -0.680963
O       2.03977      0.03835      7.08215        -0.236888      0.288097     -0.088346
O      13.46194      3.83000      7.19001        -0.246563     -0.857780      0.056733
O      13.46088     15.33472      7.08707         0.018490      1.079339     -0.340486
O       2.00382      3.91420     11.49354        -0.477020     -0.489933     -0.275079
O       1.87203     15.34559     11.48240         0.015309      0.104195     -0.583187
O      13.50467      3.82472     11.43682        -0.661973      0.922115     -0.535965
O      13.42135      0.01158     11.47230         0.069570     -0.066511     -0.171126
O       1.67629      7.68293      2.71993         0.629448     -0.303922     -0.200366
O       1.81332      7.69736     15.77193         0.458330      0.201515     -0.110165
O      13.34319      7.73675      2.79160         0.583046     -0.391352     -0.335206
O      13.44603      7.69222     15.81370        -0.242056      0.237030     -0.075060
O       1.91325      7.71327      6.99148        -0.123878     -0.744678      0.499009
O      13.41267      7.62232      6.98139        -0.176203      0.507575      0.225603
O       1.92923      7.67016     11.47421        -0.337643      0.515026     -0.188850
O      13.48363      7.70904     11.39416        -0.908132     -0.296704     -0.339455
O       2.00253     11.51977      2.65079        -0.739065     -0.861783      0.589780
O       1.81386     11.57505     15.87716         0.460090     -1.234157     -0.107106
O      13.45262     11.57932      2.66503        -0.823551     -0.872129     -0.145459
O      13.42828     11.54084     15.96493         0.277496     -0.370288     -0.893839
O       1.93922     11.59987      7.01654        -0.749613     -0.236632      0.061789
O      13.46763     11.55519      7.16626        -0.195185     -0.652855      0.037796
O       1.85554     11.47328     11.29090        -0.058690      1.122588      0.372876
O      13.43647     11.59395     11.32969        -0.024907     -0.651371     -0.186865
O       5.78116      3.87428      2.75593        -0.014154     -0.124882      0.015067
O       5.76664      3.93955     15.75878         0.223400     -1.242091      0.250342
O       5.76396     15.35670      2.66894         0.263935      0.111004     -0.399659
O       5.78609     15.31196     15.92852         0.214056      1.232366      0.042806
O       5.93815      3.78899      7.05660        -0.622075      0.280220      0.160113
O       5.80395     15.29879      7.08357        -0.250659      1.163600      0.134765
O       5.48977      3.82060     11.17505         1.079678      0.784958      0.875542
O       5.74626      0.04148     11.51767        -0.045767     -0.657567     -0.342438
O       5.65511      7.67136      2.73799         0.427368      0.270952     -0.008277
O       5.66419      7.67321     15.92872         0.524971      0.528620     -0.589955
O       5.78893      7.71714      7.13128        -0.561982     -0.959983      0.113562
O       5.73833      7.71269     11.51166         0.177778      0.534340     -0.102890
O       5.71845     11.43277      2.80081         0.271225      0.367263     -0.584444
O       5.77029     11.50072     15.82052         0.006526     -1.065182      0.165180
O       5.80197     11.52385      6.98929        -0.592328     -0.064688      0.612421
O       5.75387     11.59053     11.61476        -0.580615     -0.536757     -0.865743
O       9.55034      3.78975      2.73889         0.505696      1.032538     -0.161692
O       9.57424      3.73604     15.66794         0.496199      0.588672      0.568915
O       9.53014     15.35766      2.64736         0.636283      0.202267      0.135121
O       9.70135     15.30310     15.90414        -0.585598      0.726562     -0.669756
O       9.51034      3.86011      7.10303         0.425529     -0.634517     -0.429155
O       9.61729     15.35258      6.97209        -0.005038     -0.471978      0.397175
O       9.57843      3.80781     11.43936         0.381493      1.179995      0.192595
O       9.61391     15.34576     11.45821        -0.483177     -0.220165      0.224679
O       9.55174      7.66546      2.77181         0.403980     -0.105444     -0.014505
O       9.66331      7.59275     15.65611        -0.268793      0.218889      0.414683
O       9.56832      7.62123      7.19987         0.307157      0.818624     -0.530817
O       9.56643      7.69344     11.40850         0.044504     -0.877771      0.217722
O       9.55366     11.50578      2.63380         0.167177     -0.756493      0.164166
O       9.68233     11.51068     15.80082        -0.510259     -0.461141      0.301493
O       9.53379     11.52287      7.13746         0.645367     -0.098846      0.147205
O       9.57376     11.55968     11.37905         0.130275      0.334952      0.500109
