  # total energy = -7881.34441410 
CRSYTAL
PRIMVEC
    15.6000000000000000    0.0000000000000000    0.0000000000000000
     0.0000000000000000   15.6000000000000000    0.0000000000000000
     0.0000000000000000    0.0000000000000000    17.640000000000000
PRESSURE
-5.45039 -5.72379 -6.56965 0.051711 -0.178302 -0.027694
PRIMCOORD
320 1
Pb       3.96210      3.90140      4.31976        -0.403741     -0.505926     -0.221417
Pb       3.92942      3.81906     17.57834        -0.364989      0.344214     -0.144084
Pb       3.83705     15.54894      4.40046        -0.060858     -0.003220     -0.203683
Pb       3.89859      0.05019     17.61619        -0.037688     -0.751709     -0.177406
Pb      15.51822      3.84959      4.31353         0.110698     -0.207758      0.025420
Pb       0.02875      3.79581     17.51249         0.032934      0.591390      0.454758
Pb       0.01700      0.01266      4.34124        -0.216361     -0.088386      0.310238
Pb       0.01931     15.57340      0.02868        -0.309534     -0.103897     -0.277697
Pb       3.86598      3.89234      8.73863        -0.210427      0.156452      0.206056
Pb       3.88470      0.02502      8.79264        -0.359186     -0.365136     -0.222272
Pb       0.02929      3.86705      8.82658        -0.228335      0.219492     -0.317125
Pb      15.55625      0.10484      8.76997         0.102685     -0.682305      0.112587
Pb       3.87376      3.95388     13.16409        -0.332823     -0.078481      0.110257
Pb       3.96861      0.08749     13.18425        -0.611001     -0.410870     -0.094951
Pb       0.02275      3.90941     13.22538        -0.139288      0.024575     -0.570732
Pb      15.52718     15.54751     13.22285         0.164152      0.308979     -0.528708
Pb       3.92997      7.76207      4.27926        -0.360692      0.463494     -0.079963
Pb       3.90448      7.75420     17.56084        -0.219983     -0.018096     -0.403466
Pb      15.56515      7.58474      4.35434         0.247313      0.778056     -0.373898
Pb      15.58047      7.75641     17.56082        -0.028556     -0.073252     -0.165044
Pb       3.79953      7.74125      8.74779         0.403413      0.225875      0.307569
Pb       0.03752      7.84671      8.69862        -0.424648     -0.127312      0.157537
Pb       3.90917      7.81447     13.17600        -0.179190      0.128472      0.183344
Pb      15.58007      7.75548     13.15749        -0.252472     -0.063020      0.176452
Pb       3.90271     11.61009      4.31336        -0.193235      0.047334      0.138250
Pb       3.83889     11.64796     17.55536         0.282104      0.378686     -0.274162
Pb       0.07297     11.74039      4.40099        -0.284270     -0.346153     -0.028934
Pb       0.03768     11.64184     17.60798        -0.215851     -0.246707      0.059016
Pb       3.86122     11.76202      8.81633         0.030458     -0.054465     -0.142640
Pb       0.01036     11.57740      8.72460        -0.012852      0.412213      0.086471
Pb       3.91236     11.59582     13.19242         0.478712      0.288306     -0.387366
Pb       0.03336     11.72020     13.21320        -0.731077     -0.068295     -0.151155
Pb       7.74815      3.85512      4.27431        -0.072888      0.198742      0.762315
Pb       7.83633      3.87590     17.63317         0.017324      0.383060     -0.618707
Pb       7.78108     15.57816      4.38673         0.434242     -0.535661      0.177061
Pb       7.76578     15.56545     17.56659        -0.121004     -0.689376      0.171494
Pb       7.81177      3.89983      8.77811         0.003546      0.523227      0.228182
Pb       7.72053      0.06888      8.74758         0.255162     -0.868900      0.291521
Pb       7.65501      3.83366     13.22525         0.581423      0.291220      0.060211
Pb       7.79432      0.03403     13.11153        -0.125410     -0.020643      0.218257
Pb       7.72923      7.69502      4.31160         0.099507      0.377269      0.387963
Pb       7.78133      7.72612     17.50246         0.086878     -0.177848      0.017681
Pb       7.78873      7.82257      8.79279         0.013449     -0.197453     -0.052936
Pb       7.85670      7.67330     13.22757         0.243781      0.162765     -0.146132
Pb       7.70721     11.56002      4.28533        -0.071681      0.045487      0.209316
Pb       7.79211     11.62523     17.46252         0.179328      0.904479      0.396774
Pb       7.76921     11.65680      8.64206        -0.340375      0.217446      0.546980
Pb       7.74286     11.65558     13.17597        -0.312267     -0.053242     -0.617854
Pb      11.74803      3.81131      4.24933        -0.457458      0.453392      0.531293
Pb      11.56935      3.83188     17.56033         0.565939      0.737379      0.498393
Pb      11.76242      0.02756      4.28901        -0.601508     -0.131933      0.894236
Pb      11.78106      0.02893     17.58985        -0.161954     -0.199108     -0.123502
Pb      11.70417      3.87807      8.76257         0.237758      0.370439     -0.665590
Pb      11.56416      0.02874      8.77657         0.631710     -0.698399     -0.058605
Pb      11.66248      3.82666     13.16871         0.020958      0.511711      0.108730
Pb      11.66960      0.07862     13.22832         0.229005     -0.140799     -0.862086
Pb      11.61864      7.81621      4.40815         0.401621      0.000042     -0.287976
Pb      11.75071      7.82489     17.63777         0.040622     -0.489927     -0.466756
Pb      11.74386      7.80339      8.77292        -0.064880     -0.010820      0.019780
Pb      11.66382      7.84509     13.13250        -0.155259     -0.211045      0.591635
Pb      11.67901     11.59779      4.47169         0.302560     -0.322475     -0.007392
Pb      11.57685     11.75047      0.06468        -0.097559     -0.434467     -0.420449
Pb      11.56451     11.77203      8.90783         0.755108      0.058017     -0.170697
Pb      11.70719     11.68613     13.33861         0.345339     -0.013067     -0.614246
Ti       1.89581      1.87848      2.29975         0.494327      0.945852     -0.588417
Ti       1.88591      1.90519     15.65681         0.379269      0.268608     -1.295174
Ti       1.92447     13.59207      2.39311         0.162512     -0.021161     -0.805493
Ti       1.79029     13.64345     15.64750         1.240169      0.786324     -0.231739
Ti      13.56373      1.85188      2.40344         0.569903      0.961698     -0.514964
Ti      13.58322      1.98413     15.57950         0.474399     -0.218870     -1.656390
Ti      13.56038     13.55920      2.39383         0.700628     -0.284975     -0.188326
Ti      13.51817     13.55011     15.68747        -0.091108     -0.110865     -1.359049
Ti       1.92811      1.95103      6.79225         0.063677     -0.330941     -0.644460
Ti       1.94032     13.61066      6.73719         0.008725     -0.195742      0.403074
Ti      13.67365      1.88404      6.78752         0.371068      0.751069     -1.194714
Ti      13.67464     13.61564      6.71625         0.546501      0.137770      0.951777
Ti       1.90288      1.97262     11.25961        -0.391120     -0.108801     -1.179794
Ti       1.92374     13.64842     11.21373         0.514087      0.654218     -0.060344
Ti      13.62443      2.00650     11.17470         0.112876     -0.490104      0.176773
Ti      13.60091     13.61863     11.20985        -0.044783      0.458151     -1.359358
Ti       1.99156      5.76955      2.38758        -0.804763      0.303162      0.143133
Ti       1.92870      5.85385     15.59046         0.120508     -0.052948     -0.486270
Ti      13.62614      5.86848      2.33095        -0.393108     -0.431098     -0.425565
Ti      13.69055      5.72774     15.56468        -1.395440      1.648311     -0.257570
Ti       1.89912      5.82936      6.65571        -0.184187      0.015352      1.450432
Ti      13.62579      5.91700      6.65422        -0.386868     -1.209740      0.235425
Ti       1.89261      5.96662     11.18816         0.148667     -1.331590     -0.737005
Ti      13.50454      5.85338     11.12228         1.319907     -0.320302      0.129705
Ti       1.89948      9.73891      2.31322         0.113183     -0.696778     -0.212788
Ti       1.96369      9.75522     15.63256        -0.005421     -1.055689     -0.554394
Ti      13.68000      9.69980      2.27999        -0.276316      0.258197     -0.083614
Ti      13.61957      9.66659     15.62948         0.122389     -0.049340     -1.600938
Ti       1.92902      9.69311      6.70263        -0.168715      0.951346     -0.422490
Ti      13.56047      9.84013      6.83619         0.143593      0.005928     -1.406628
Ti       1.90709      9.79795     11.26311         0.051124     -0.148899     -2.249919
Ti      13.63228      9.71674     11.27833        -0.291826      0.151212     -1.807892
Ti       5.81393      1.87411      2.37147        -0.740456      0.457723     -0.931956
Ti       5.89611      1.87403     15.67130        -0.591565      0.796730     -1.317010
Ti       5.85144     13.66157      2.45374        -0.550640     -0.262476     -1.332709
Ti       5.78034     13.69073     15.45990         0.062870     -0.521077      1.692595
Ti       5.88972      1.94415      6.78513        -1.553514      0.644705     -0.255166
Ti       5.84534     13.68962      6.68326        -0.221365     -0.276780      0.154321
Ti       5.80011      1.93315     11.16850         0.653270      0.862881     -0.196810
Ti       5.84229     13.70507     11.16108        -0.861533     -1.360490      0.226993
Ti       5.85837      5.85225      2.30167        -0.190095     -0.041633     -0.186561
Ti       5.85276      5.79396     15.50945         0.001734      0.155377      0.067282
Ti       5.82034      5.85519      6.84860         0.603797      0.596266     -0.058092
Ti       5.79663      5.83059     11.28847         0.226458     -0.007171     -0.777359
Ti       5.83964      9.72534      2.23031        -0.171197      0.017028      1.071675
Ti       5.91258      9.75840     15.59984        -1.429926      0.058664     -1.023582
Ti       5.77039      9.79318      6.76787         0.197378     -0.814712     -0.079563
Ti       5.82663      9.68677     11.13728         0.050701      0.911448     -0.866552
Ti       9.61057      1.83058      2.28722         0.904975      0.524560      0.010420
Ti       9.72974      1.89052     15.59058        -0.188662      0.773220     -0.347801
Ti       9.76976     13.51068      2.48015        -0.546996      0.221494     -1.524555
Ti       9.68387     13.69317     15.49990        -0.277260     -0.397448     -0.190201
Ti       9.73113      1.90672      6.79846         0.784739     -0.044927     -1.376950
Ti       9.78115     13.57026      6.73759        -0.156103      1.348480     -0.372348
Ti       9.66423      2.02871     11.17807         0.136887      0.232747      0.342113
Ti       9.73481     13.64305     11.27877         0.122264      0.006806     -0.865516
Ti       9.70890      5.80274      2.39609         0.570269     -0.031027     -0.885970
Ti       9.76815      5.86531     15.60962         0.675573     -0.076256     -1.387850
Ti       9.75392      5.82748      6.72522         0.019375     -0.006097     -0.286619
Ti       9.71950      5.87642     11.18056        -0.531502     -0.311630     -0.225599
Ti       9.77752      9.71961      2.35799         0.085187     -0.276627     -1.258895
Ti       9.76350      9.73264     15.55964         0.470735     -0.676833     -1.481541
Ti       9.74124      9.72738      6.77309         0.591702     -0.688428      0.323346
Ti       9.71675      9.79057     11.15273        -0.023329     -0.359709     -0.118279
O       1.84733      1.97031      0.45124        -0.304146     -0.258935      1.564668
O       1.92915      1.91059     13.83976         0.020099     -0.024517      1.161243
O       1.90746     13.62006      0.57807         0.002786     -0.194422      1.003514
O       1.69796     13.83762     13.89792         0.257337     -0.666833      0.871041
O      13.59408      1.84825      0.62876         0.046311     -0.126493      0.596904
O      13.57267      2.09939     13.75210        -0.265131     -0.632393      1.952438
O      13.46389     13.67932      0.61182         0.053615     -0.052235      0.301599
O      13.47627     13.45894     13.87496         0.416957      0.569920      1.667835
O       1.87445      1.99109      5.01203         0.313362     -0.227163      1.007133
O       2.00617     13.46790      4.97082        -0.214832      0.587144      0.295650
O      13.78498      1.82166      4.93771        -0.455820      0.172111      1.024130
O      13.81143     13.61017      4.94817        -0.573516     -0.167548      0.506367
O       1.88110      1.93494      9.40795        -0.008902      0.225513      1.755024
O       2.07317     13.60163      9.46053        -0.390135      0.028187      0.525665
O      13.72572      1.96458      9.39589        -0.232494      0.017855      0.437045
O      13.58352     13.66535      9.39449         0.022271     -0.153773      1.697236
O       1.94587      5.72032      0.65604        -0.017663      0.237698      0.074370
O       1.86845      5.84909     13.79942         0.151877      0.142184      1.161621
O      13.53389      5.86927      0.55404         0.539459      0.171434      1.304476
O      13.53817      5.78046     13.77860         0.606977     -0.150820      1.249970
O       1.91991      5.98666      4.91013         0.224280     -0.605801      0.206265
O      13.56326      5.81724      4.85387         0.160398      0.210666      1.522873
O       1.97901      5.76516      9.39081        -0.189786      0.507175      1.103002
O      13.59908      5.87772      9.33829        -0.198531     -0.070674      0.860153
O       1.96473      9.82541      0.49427        -0.095990     -0.023241      0.852653
O       2.00951      9.65458     13.86034        -0.145041      0.431750      0.292162
O      13.49665      9.67582      0.49235         0.693523     -0.119855      0.714284
O      13.62015      9.70649     13.78160        -0.337069     -0.012168      1.345682
O       1.82926      9.76256      4.93642         0.409840     -0.343207      0.845161
O      13.44878      9.97414      5.00525         0.401983     -0.495084      1.563014
O       1.91009      9.90052      9.40585        -0.224908     -0.600936      1.804989
O      13.58959      9.66014      9.41839         0.463070      0.235673      1.733463
O       5.84263      1.84690      0.56083         0.079238      0.003553      1.264199
O       5.86437      1.93904     13.86466        -0.345339     -0.278093      1.281844
O       5.82325     13.74977      0.63900         0.117154     -0.175007      1.880053
O       5.84739     13.73910     13.73545         0.037217     -0.094107     -0.317668
O       5.70289      2.07446      5.01624         0.517099     -0.615027      0.585966
O       5.85696     13.73374      4.87625        -0.134739     -0.113694      1.431259
O       5.93097      2.05004      9.40198        -0.330807     -0.307573      0.509522
O       5.60152     13.61449      9.43236         0.658274      0.288933      0.156917
O       5.87715      5.89288      0.55378         0.132443     -0.060290      0.512198
O       5.90626      5.76838     13.71802        -0.531216      0.158805      1.439063
O       5.94949      5.93077      5.07774        -0.414375     -0.033608      0.511011
O       5.77066      5.78242      9.51517         0.034313     -0.062046      0.183424
O       5.79417      9.63719      0.47907         0.055790      0.463510      0.240417
O       5.74460      9.86407     13.82516         0.301851     -0.308966      0.647405
O       5.93845      9.66214      4.96851        -0.313024      0.252095      1.319412
O       5.81797      9.70898      9.33272         0.121389      0.070497      1.357192
O       9.75199      1.95350      0.48464        -0.545569     -0.278305      1.408797
O       9.80994      2.02901     13.82534        -0.195888     -0.511325      0.938939
O       9.75676     13.34837      0.62520         0.033026      0.678534      2.263809
O       9.71077     13.72975     13.70396         0.099794     -0.047769      1.123898
O       9.84712      1.76772      5.00397        -0.596242      0.370054      1.910918
O       9.77315     13.57136      4.97149        -0.139210      0.237210      0.367073
O       9.59239      2.11289      9.41239         0.458155     -0.588971     -0.150545
O       9.84573     13.56640      9.45939        -0.351690      0.252133      1.314490
O       9.55682      5.81598      0.57363         0.211627     -0.116777      1.603570
O       9.77902      5.99351     13.77605         0.023246     -0.387878      1.594924
O       9.76938      5.78346      4.91090        -0.321065      0.333736      1.063406
O       9.70148      5.88101      9.40388         0.147887     -0.252107      1.116017
O       9.75922      9.85757      0.55227        -0.052053     -0.412712      1.329393
O       9.84576      9.53049     13.70597        -0.486667      0.896846      2.116764
O      10.00441      9.65141      4.99078        -0.738500      0.338517      0.883447
O       9.64836      9.83140      9.33139         0.169510      0.189637      1.585018
O       3.78001      2.00481      2.71914         1.398994     -0.467658      0.097655
O       3.79955      1.88822     16.12642         0.775629      0.060441     -0.490050
O       3.92052     13.54278      2.91899        -0.216829      0.591796     -0.560202
O       3.91109     13.77433     15.95071        -0.600845     -0.197900     -0.133942
O       0.06580      1.92228      2.87696        -0.740467     -0.330832     -0.839152
O      15.50357      1.99625     15.88102         0.113743     -0.112017      0.564431
O       0.02338     13.55836      2.83521         0.191161      0.541066     -0.591976
O      15.54331     13.55880     16.20914        -0.548425      0.242308     -0.615248
O       3.90605      1.94820      7.23249        -0.018167      0.238110     -0.222011
O       3.89546     13.68373      7.22540        -0.254102     -0.318939     -0.535266
O       0.00034      1.88997      7.26956         0.179268      0.312251     -0.177483
O       0.00566     13.53063      7.14138         0.068945      0.528422     -0.058615
O       3.91707      1.92933     11.65181        -0.421304      0.184012     -0.363506
O       3.93260     13.67885     11.68939        -0.841352      0.012351      0.025511
O      15.50843      1.96799     11.63676         0.880821     -0.136787     -0.078661
O      15.55460     13.66377     11.72385         0.108216     -0.254994     -0.422111
O       3.92021      5.86839      2.75437         0.444543      0.007685      0.057296
O       3.85476      5.82384     16.05411         0.589046      0.023606     -0.510027
O      15.51635      5.79880      2.75807         0.536000     -0.079960     -0.050905
O      15.55984      5.86351     16.05041         0.318587     -0.288568     -0.239369
O       3.80323      5.85315      7.24568         0.646252     -0.270603     -0.751402
O       0.00048      5.98605      7.04125        -0.506852     -0.205438     -0.141961
O       3.82548      5.93610     11.75195         0.276485     -0.745439     -0.385732
O       0.05960      5.83316     11.55827        -1.067757      0.065237      0.123989
O       3.85163      9.73225      2.75584         0.782555     -0.371516     -0.279489
O       3.87772      9.71809     15.99965         0.231598      0.178062      0.300273
O       0.04660      9.63620      2.66399        -0.934137      0.602929     -0.142216
O      15.59398      9.63621     15.91881        -0.198759      0.744079      0.485981
O       3.91319      9.71995      7.12720        -0.616207     -0.085569     -0.429995
O      15.52717      9.71220      7.14720         0.290312     -0.063445      0.127945
O       3.80332      9.82707     11.59887         0.577030     -0.483869      0.169340
O      15.57221      9.68536     11.69697        -0.039784      0.423645     -0.214426
O       7.74371      1.80946      2.89245        -0.257622      0.445564     -0.900408
O       7.75031      1.98551     15.92699         0.688671     -0.025151      0.470657
O       7.76896     13.61405      2.87948         0.732548     -0.011196     -0.263836
O       7.80362     13.70994     16.00093        -0.048534     -0.645770     -0.254799
O       7.78187      1.83842      7.28122         0.111584      0.660553     -1.059758
O       7.73168     13.70688      7.10880        -0.217182     -0.035498      0.053222
O       7.74413      2.01913     11.68468        -0.280940     -0.332861     -0.360384
O       7.76826     13.65147     11.59155         0.183954     -0.012610     -0.095700
O       7.77479      5.82034      2.81215        -0.307498      0.086305     -0.122513
O       7.80699      5.78426     15.90046        -0.830787     -0.096322      0.325070
O       7.85400      5.91496      7.32056        -0.768393     -0.157903     -0.739045
O       7.77893      5.83292     11.75455         0.090635      0.299485     -0.743108
O       7.76633      9.72533      2.64243         0.455217      0.212021      0.142383
O       7.79552      9.77747     15.99034        -0.084279     -0.451562     -0.298311
O       7.84986      9.72691      7.18260        -0.406673      0.079933     -0.400251
O       7.70001      9.79277     11.61842         0.801766     -0.513836     -0.239995
O      11.63927      1.91664      2.78596         0.274237     -0.278173     -0.576353
O      11.66975      1.92460     16.00044        -0.141634     -0.137623     -0.035752
O      11.67383     13.57258      2.99628         0.174313      0.212523     -1.148474
O      11.58414     13.59990     16.02600         0.328304      0.356966     -0.046353
O      11.80156      1.89530      7.23830        -1.491759      0.171598     -0.104267
O      11.71179     13.66286      7.18723        -0.328118     -0.050663     -0.309289
O      11.63926      2.04016     11.63622         0.012109     -0.601680     -0.562047
O      11.68966     13.64050     11.62474        -0.776496     -0.010051      0.210614
O      11.61900      5.65353      2.69134        -0.253856      0.436050     -0.062713
O      11.71277      5.84739     16.14368        -0.554792     -0.058128     -0.592431
O      11.66703      5.74914      7.15029         0.493790      0.361686     -0.090170
O      11.67576      5.75922     11.55188        -0.351167      0.232849     -0.405655
O      11.77607      9.66999      2.70973        -0.691785      0.347810      0.076640
O      11.59656      9.60021     15.99278         0.255717      0.259558     -0.198208
O      11.66877      9.94099      7.30010        -0.745433     -0.508972     -0.306992
O      11.65747      9.66387     11.48253        -0.071108      0.509529      0.121061
O       1.97138      3.83888      2.83412        -0.268728      0.545857     -0.251292
O       1.91793      3.94468     16.05807        -0.139764     -0.668013     -0.255321
O       2.03280     15.54213      2.74979        -0.363607      0.223804     -0.130291
O       1.81915      0.02338     16.12278        -0.154961     -0.598484     -0.188465
O      13.62904      3.84420      2.82031         0.185471     -0.620920     -0.413858
O      13.58806      3.91975     16.03636         0.059420     -1.196873     -0.080598
O      13.65888     15.51958      2.80230         0.006802      0.555985     -0.228394
O      13.56978     15.58649     16.00812         0.167069     -0.145948     -0.090103
O       1.83732      3.88241      7.28433         0.399965      0.420838     -0.935229
O       1.94778     15.56639      7.14611        -0.098385      0.096115     -0.079219
O      13.70559      3.88785      7.13078        -0.023687      0.306545     -0.038610
O      13.72376      0.00340      7.16209        -0.219424     -0.730271     -0.012043
O       1.93744      3.90836     11.68105         0.176483     -0.651889     -0.229692
O       1.88342      0.02375     11.63822         0.103910      0.024963     -0.020365
O      13.65105      3.86503     11.65622        -0.136934      0.816705     -0.707503
O      13.58399     15.53772     11.60991        -0.109199      0.713876      0.248627
O       1.86460      7.76416      2.83321         0.668964     -0.157579     -0.514897
O       1.94284      7.75349     16.13232        -0.003558      0.112466     -0.308780
O      13.65253      7.78214      2.83209        -0.280266     -0.183351     -0.568203
O      13.64722      7.77929     16.01065        -0.170596     -0.060284      0.119717
O       1.91903      7.79948      7.27089         0.218764     -0.023023     -0.788065
O      13.50009      7.84791      7.12761         0.081429     -0.547516     -0.290878
O       1.90437      7.83956     11.61876         0.217761      0.255037     -0.210137
O      13.62521      7.73253     11.64903         0.079666      0.064807     -0.443713
O       1.99686     11.66043      2.79339        -0.324725     -0.033957     -0.328690
O       1.95463     11.69762     16.02078        -0.186004      0.262964     -0.189006
O      13.73468     11.68934      2.61476        -0.371350     -0.438872      0.144531
O      13.48573     11.60922     15.99853         0.491262      0.580521      0.250103
O       1.86275     11.63185      7.11825         0.515747      0.102509      0.158790
O      13.64645     11.72340      7.33268        -0.152291      0.043952     -0.671570
O       1.87248     11.73414     11.64861         0.062594     -0.047957      0.292027
O      13.60667     11.65800     11.73902         0.085825     -0.220597     -0.477439
O       5.80612      3.88700      2.72478         0.358552     -0.145989      0.011491
O       5.80900      3.89401     16.11267         0.026889     -0.111457     -0.494887
O       5.80134      0.03490      2.88977        -0.254085     -0.178927     -0.288420
O       5.93571     15.57677     16.08899        -0.535642      0.512158     -0.451693
O       5.88201      3.92040      7.19504        -0.070730     -0.194182     -0.121426
O       5.75395     15.57989      7.32098         0.551541      0.481657     -0.909539
O       5.83565      3.91707     11.73465        -0.516248     -0.624580     -0.490358
O       5.86177      0.03358     11.52307         0.035499      0.150529      0.035553
O       5.90267      7.81397      2.77476        -0.408160     -0.384316     -0.355120
O       5.81874      7.77592     15.92814         0.275683     -0.263808     -0.065229
O       5.79615      7.78674      7.41044         0.192494     -0.272417     -1.047812
O       5.75145      7.72111     11.63433         0.302813      1.395779     -0.091615
O       5.82894     11.66352      2.85944         0.225833     -0.288183     -0.768661
O       5.80097     11.74420     15.90538         0.154915     -0.185221      0.212865
O       5.76568     11.70553      7.21934         0.536016      0.021303     -0.785848
O       5.82599     11.63166     11.49211        -0.173891      0.497558      0.625292
O       9.53730      3.76536      2.89581         0.876512      0.172817     -1.254217
O       9.77283      3.88099     16.15274        -0.565131     -0.314642     -0.811302
O       9.73010     15.57417      2.78412         0.005611     -0.476632     -0.411805
O       9.60977     15.57828     16.03153         0.851348      0.315610     -0.500214
O       9.73354      3.92098      7.18541        -0.178217     -1.151664     -0.196551
O       9.68811     15.57316      7.28180         0.331636      0.555694     -0.113732
O       9.61884      3.90875     11.62992         0.436063      0.251479     -0.234512
O       9.61950      0.10794     11.67280         0.831538     -0.780108     -0.560111
O       9.78543      7.80390      2.88014        -0.292892     -0.556817     -0.808811
O       9.63987      7.70497     16.00922         0.052164      1.019280      0.200426
O       9.81922      7.77326      7.29491         0.004295      0.787862     -0.951549
O       9.73960      7.82622     11.61830        -0.398079     -0.163331     -0.669765
O       9.82694     11.60220      2.85003        -0.438789      0.228922     -0.014619
O       9.69661     11.65081     15.96365         0.108909      0.193968     -0.591831
O       9.60375     11.78344      7.14175         0.590130     -1.328530     -0.022969
O       9.71298     11.70904     11.76773         0.093036     -0.312687     -0.726790
