  # total energy = -7880.99366208 
CRSYTAL
PRIMVEC
    15.6000000000000000    0.0000000000000000    0.0000000000000000
     0.0000000000000000   15.6000000000000000    0.0000000000000000
     0.0000000000000000    0.0000000000000000    17.640000000000000
PRESSURE
-5.65252 -5.39748 -4.25997 -0.170907 -0.072219 0.028904
PRIMCOORD
320 1
Pb       3.76424      3.78385      4.42794         0.256181     -0.112782     -0.499625
Pb       3.93702      3.94798     17.60470        -0.094849      0.125776     -0.173844
Pb       3.82961     15.47468      4.35240        -0.146468     -0.061949     -0.667166
Pb       3.76896     15.57462     17.60041        -0.158122      0.102164     -0.465226
Pb       0.02844      3.89625      4.36116        -0.619555     -0.474889     -0.004107
Pb       0.00389      4.00823      0.00651         0.328097     -0.450393     -0.079157
Pb      15.54627     15.51363      4.31444        -0.047098      0.699012     -0.450547
Pb      15.44971      0.01034     17.58965        -0.207713     -0.071884     -0.296654
Pb       3.80255      3.99618      8.82130         0.085141     -0.044411     -0.368299
Pb       3.85843      0.03866      8.74325        -0.420011     -0.364723     -0.423349
Pb      15.54442      3.96926      8.79935        -0.035530      0.193027     -0.623292
Pb      15.57144     15.58304      8.72011         0.355194      0.090820     -0.247546
Pb       3.94556      3.61697     13.26078        -0.170083      0.296685     -0.252752
Pb       3.80836     15.48962     13.14419        -0.060478      0.755330     -0.081335
Pb       0.01817      3.81099     13.19866         0.103653      0.193332     -0.878999
Pb      15.55713      0.08972     13.15323        -0.003850     -0.151391     -0.439346
Pb       3.89153      7.78003      4.43697         0.550206     -0.096916     -0.146094
Pb       3.96533      7.80753     17.62877         0.150850     -0.417555     -0.685959
Pb       0.09182      7.93360      4.41087        -0.736349     -0.380576     -0.281126
Pb       0.08620      7.84124     17.51422        -0.189540      0.035629     -0.469231
Pb       3.91712      7.90255      8.85621         0.130828     -0.205540     -0.610533
Pb      15.51907      7.81477      8.91433        -0.239678     -0.198078     -0.622958
Pb       3.92959      7.73772     13.15324         0.153351      0.194870     -0.602928
Pb       0.11822      7.85237     13.20284        -0.300460      0.211373     -0.563128
Pb       3.91848     11.65536      4.38104         0.000218      0.187822     -0.368726
Pb       3.91684     11.66149     17.62092        -0.220603      0.305874     -0.922698
Pb      15.54031     11.61127      4.31574        -0.166089     -0.152102     -0.628490
Pb      15.55742     11.67307     17.48470        -0.080973      0.103373     -0.537372
Pb       3.84244     11.64355      8.82343        -0.569795      0.393410     -0.502355
Pb      15.49023     11.83420      8.78128         0.389776     -0.480035      0.112209
Pb       3.81928     11.83499     13.15584         0.153964     -0.680019     -0.310163
Pb      15.47103     11.69492     13.17462        -0.561583      0.000551     -0.440555
Pb       7.84448      3.63249      4.56414        -0.076687      0.367969     -0.628660
Pb       7.74628      3.85526     17.59881         0.371073      0.336943     -0.337638
Pb       7.64190     15.42776      4.40505         0.343302      0.208643     -0.597384
Pb       7.70668      0.01752     17.61340         0.057013     -0.269936     -0.512352
Pb       7.57910      3.94640      8.78466         0.521833     -0.108962     -0.119398
Pb       7.80165     15.58832      8.76501         0.176113     -0.039204     -0.241085
Pb       8.03309      4.00165     13.14178         0.225659     -0.458148     -0.008260
Pb       7.81249      0.07141     13.21583         0.205572      0.190585     -0.497702
Pb       7.95469      7.70299      4.40490        -0.143958      0.103307     -0.346181
Pb       7.81271      7.88463      0.05663        -0.111101     -0.158324     -0.346231
Pb       7.70698      7.84334      8.74906        -0.209297     -0.053828     -0.328603
Pb       7.72732      7.92384     13.13387         0.010213     -0.240152     -0.324491
Pb       7.85928     11.70164      4.43183        -0.144946     -0.647668     -0.322408
Pb       7.76944     11.71665      0.01609        -0.017789     -0.137471     -0.599081
Pb       7.85144     11.75329      8.93029        -0.210175      0.021432     -0.795133
Pb       7.78389     11.81885     13.19187        -0.217063      0.185705     -0.350130
Pb      11.70199      3.85720      4.43984         0.224711      0.297362     -0.296435
Pb      11.80348      3.81788      0.03426        -0.204482      0.126379     -0.402821
Pb      11.51986     15.36638      4.45174         0.003836      0.325181     -0.600315
Pb      11.42839     15.45715      0.01537         0.813283      0.159290     -0.230880
Pb      11.53938      3.94247      8.82887         0.154634     -0.228756     -0.787103
Pb      11.85002      0.06170      8.72075        -0.531090     -0.223135     -0.083918
Pb      11.82984      3.94829     13.19745        -0.440261     -0.234194     -0.761367
Pb      11.68126     15.54032     13.16627        -0.063100      0.199357     -0.616922
Pb      11.76415      7.62452      4.28329        -0.141923      0.536167     -0.201996
Pb      11.64990      7.68160     17.50829         0.165547      0.233078      0.104674
Pb      11.55078      7.81527      8.72571         0.692499      0.207361     -0.202199
Pb      11.74284      7.70080     13.23120        -0.253988      0.087899     -0.682012
Pb      11.67629     11.61508      4.22891         0.140692     -0.870915      0.142561
Pb      11.80589     11.55867     17.47417        -0.085838      0.156686     -0.266404
Pb      11.76238     11.62824      8.64550        -0.094665      0.030909      0.454437
Pb      11.57921     11.63883     13.04509         0.876937      0.184752      0.185904
Ti       1.85294      1.90764      2.30360        -0.082444     -0.481506     -0.061328
Ti       1.92222      1.95963     15.64606         0.375965     -0.498887      0.485262
Ti       1.80113     13.53242      2.27827         1.154572      0.297427      0.335286
Ti       1.82329     13.62232     15.51146         0.154934      0.085042      1.945708
Ti      13.48054      1.90289      2.53867         1.134395      0.059083     -1.022691
Ti      13.69486      1.99922     15.47124         0.141507     -1.326600     -0.042460
Ti      13.52592     13.64269      2.32905         0.322145     -0.224013     -0.787821
Ti      13.52487     13.68040     15.46489         0.235306     -0.628137     -0.513245
Ti       1.92014      1.99330      6.81878        -0.402197     -0.479525     -0.078619
Ti       1.85770     13.60957      6.65213         1.028154     -0.433219      1.453356
Ti      13.62109      1.93602      6.70827         0.380809      1.267796     -0.871293
Ti      13.62363     13.63768      6.65335        -0.557531     -0.539532      0.461916
Ti       1.97021      1.97300     11.12423        -0.238415     -0.285558      0.273539
Ti       1.85694     13.62409     11.20762        -0.630152      1.075471     -1.875040
Ti      13.63894      1.98691     11.09501        -0.518918     -0.446214     -0.126356
Ti      13.59120     13.64221     11.14129         0.155729      0.154347      1.745388
Ti       1.95568      5.88812      2.51057         0.508496     -0.816858      0.406905
Ti       2.05340      5.84683     15.48207         0.229762     -0.638455      0.823751
Ti      13.76101      5.86226      2.43427        -0.803585     -0.505652      0.555299
Ti      13.77942      5.77807     15.55053        -0.984959      0.868060     -1.019542
Ti       1.95044      5.87778      6.78767        -0.513741      0.232394     -0.225409
Ti      13.62723      5.89848      6.68619        -0.259191     -0.251795      0.862275
Ti       1.93138      5.83854     11.24865         0.002163     -0.725248      0.371025
Ti      13.65211      5.86561     11.13262         0.522822     -0.241091     -0.056633
Ti       1.97022      9.70286      2.28754         0.099682      0.348480     -0.897335
Ti       2.01743      9.70738     15.53755        -0.122631      0.613093     -0.945675
Ti      13.67644      9.73324      2.13556        -1.032692     -0.106725      0.405311
Ti      13.61818      9.64524     15.48936         0.595716      1.114647     -0.267784
Ti       1.79048      9.70048      6.84976         0.600774      0.452483      1.490494
Ti      13.63997      9.76289      6.77977        -0.561844     -0.663095      0.233152
Ti       1.94214      9.79543     11.20325        -0.233242     -0.198422     -0.197482
Ti      13.59058      9.66653     11.15747        -0.109997      0.904549     -0.579421
Ti       5.80783      1.94244      2.37852        -0.513016      0.230514     -0.196375
Ti       5.87381      1.92611     15.75417        -0.614146     -0.368998     -2.045615
Ti       5.81063     13.54397      2.34605        -0.952637     -0.069535     -0.758815
Ti       5.79320     13.59285     15.58468         0.153293      0.120904      0.810253
Ti       5.80946      1.90081      6.77444        -0.298067      0.736758     -0.383367
Ti       5.81246     13.67455      6.80395        -0.389413     -0.490487      0.099320
Ti       5.88474      1.91272     11.16647         0.230512      0.313565     -0.719293
Ti       5.82829     13.71734     11.09646         0.403093     -0.567806     -1.094629
Ti       5.86454      5.82044      2.54644         0.225429      0.031892     -1.142396
Ti       5.95428      5.84041     15.42633         0.118575      0.032449      1.448237
Ti       5.83384      5.82738      6.78397         0.077610      0.684473      0.426460
Ti       5.86611      5.68180     11.38608        -0.691814      1.180565     -1.308581
Ti       5.84955      9.69722      2.39104         0.543584     -0.241499      1.002413
Ti       5.93482      9.70975     15.46381        -0.886517      0.160912     -0.234046
Ti       5.78177      9.90073      6.84885         0.780475     -1.360116     -0.801127
Ti       5.85230      9.80118     11.16912        -0.385347     -0.514364      1.185135
Ti       9.68860      1.88323      2.40221         0.033229     -0.313529      0.747345
Ti       9.84132      1.92225     15.65210        -0.723867      0.538094     -0.859437
Ti       9.66449     13.52376      2.26861         0.419637      0.306913      0.916793
Ti       9.69460     13.57001     15.55272        -0.110865      0.059636     -0.143695
Ti       9.69420      1.85117      6.76304         0.291888      0.423656     -0.258010
Ti       9.69606     13.54589      6.78897        -0.040113      0.831602      0.473236
Ti       9.77106      1.97637     11.10637         0.296719     -0.061237      0.239449
Ti       9.71162     13.68365     11.12049         0.292898      0.829253     -0.333943
Ti       9.74414      5.70152      2.30218         0.246708      1.011509      1.252145
Ti       9.81457      5.82275     15.63592        -0.356892     -0.511593     -0.708036
Ti       9.74790      5.79276      6.72366        -0.082247     -0.021947      0.428885
Ti       9.77791      5.96506     11.10135         0.047484     -0.757969      0.853285
Ti       9.73903      9.69477      2.32896         0.516399     -0.461237     -0.535444
Ti       9.74179      9.71868     15.52606         0.192934      0.095379      1.017870
Ti       9.73933      9.73021      6.79630        -0.243353     -0.351904     -1.055178
Ti       9.68474      9.81852     11.09585         1.544042     -1.110984     -0.805940
O       1.85179      1.82233      0.53207        -0.020917      0.235469      0.260787
O       1.91455      1.75696     13.91355         0.448290      0.448413     -0.851688
O       1.90163     13.44766      0.53937         0.105686      0.194551     -0.150100
O       1.86212     13.79720     13.79136         0.145831     -0.480791     -0.919078
O      13.56526      1.85053      0.76054         0.015163      0.392157     -0.080067
O      13.66671      1.95983     13.69298        -0.014356      0.406794      0.763163
O      13.50657     13.74975      0.55132        -0.246303     -0.134634      0.378090
O      13.54165     13.55570     13.66557         0.075452      0.565871      1.165137
O       1.93677      1.83790      5.07802         0.060290      0.568504     -0.521627
O       1.95947     13.44935      4.91284        -0.459027      0.451979      0.020750
O      13.71925      1.95200      4.91078        -0.467090     -0.542516      0.579206
O      13.61963     13.57090      4.89951         0.158733     -0.142068     -0.071097
O       1.94649      1.97336      9.35852         0.032294      0.133876     -0.305724
O       1.81110     13.68909      9.40524         0.138259     -0.157697      0.666636
O      13.57624      1.90658      9.27938         0.199064      0.051153      0.537605
O      13.68722     13.72821      9.41613        -0.055598      0.002053     -1.074331
O       2.13427      5.80027      0.80240        -0.332091      0.280801     -1.247152
O       2.02200      5.86572     13.74321        -0.398216      0.205284     -0.006904
O      13.83703      5.72121      0.71010        -0.015157     -0.010338     -1.569407
O      13.68021      5.82193     13.74198        -0.063680     -0.191350      1.087139
O       1.99543      5.96867      5.01083        -0.329929     -0.300821     -0.236319
O      13.52575      5.83983      4.95513         0.531170      0.462122     -0.730344
O       1.85710      5.78737      9.51348         0.436628     -0.253002     -0.868273
O      13.63883      5.88477      9.36919        -0.100345     -0.272646     -0.085081
O       2.02780      9.69430      0.48542        -0.077453     -0.140350      0.752445
O       1.97581      9.61859     13.72893         0.080226      0.180036      0.397859
O      13.60473      9.78069      0.34548         0.421925     -0.389224      0.200667
O      13.61591      9.76132     13.72912         0.000552     -0.379328     -0.291757
O       1.59520      9.66385      5.13739         0.413109      0.189067     -1.574511
O      13.57216      9.72975      5.04263         0.710981      0.420528     -1.145087
O       2.03364      9.78414      9.44742        -0.264926     -0.128845     -0.023699
O      13.49735      9.69255      9.38965         0.509783      0.144586      0.138961
O       5.76324      1.96636      0.59595         0.575349     -0.369960     -0.081446
O       5.75861      1.84738     13.95435         0.319084      0.249619      0.507050
O       5.78044     13.50580      0.54764         0.087595     -0.118733      0.537827
O       5.95574     13.57304     13.84876        -0.163406      0.069563     -0.803720
O       5.71750      1.85936      4.98939         0.466365     -0.094626      0.018801
O       5.71731     13.56076      5.01468         0.390163      0.283552      0.066111
O       5.86784      2.04431      9.38963        -0.262278     -0.188747      0.619185
O       5.88534     13.63883      9.30681        -0.312189      0.417402      0.800805
O       5.76991      5.91753      0.76986        -0.002726     -0.032292      0.082864
O       5.98753      5.83163     13.69363        -0.166523     -0.050754     -0.655968
O       5.96943      5.89726      5.06674        -0.195089     -0.048469     -0.717781
O       5.86298      5.77703      9.61944        -0.260523     -0.374087     -0.623499
O       5.99613      9.63752      0.64906        -0.595057     -0.189595     -0.994774
O       5.99180      9.70050     13.66781         0.201076      0.400570      0.474866
O       5.88203      9.84906      5.09451        -0.455091      0.126580      0.107322
O       5.84470      9.72446      9.45632        -0.251141      0.270434     -1.501904
O       9.64420      1.77127      0.65394         0.220780      0.309377     -0.429012
O       9.78578      2.05062     13.87452        -0.034658     -0.233010      0.859369
O       9.75324     13.55365      0.52438        -0.041939      0.079350     -0.261916
O       9.69060     13.60854     13.77272        -0.356362     -0.055491      0.057740
O       9.75468      1.87526      4.96313        -0.547894     -0.052322      0.468377
O       9.52169     13.51543      5.04740         0.590368      0.310436     -0.959949
O       9.74449      2.02650      9.36461         0.165662     -0.372622     -0.887626
O       9.66304     13.68687      9.34947        -0.003340     -0.107081      0.059200
O       9.82761      5.73985      0.56429        -0.152085      0.345697     -0.386033
O       9.87694      5.79193     13.83900         0.078137     -0.209985     -0.115990
O       9.70723      5.81968      4.97061        -0.201202      0.095512     -0.092018
O       9.84000      5.88743      9.37964         0.074356     -0.252089     -0.829501
O       9.75132      9.69632      0.53122        -0.210600     -0.301544      0.322670
O       9.67523      9.72578     13.80567         0.025459     -0.056357     -1.040933
O       9.76358      9.79317      5.01081        -0.273742      0.009600      0.303733
O       9.70236      9.71738      9.33005         0.133345      0.344546     -0.396850
O       3.86127      1.97568      2.63721         0.113603     -0.195275      0.645409
O       3.87648      1.86054     16.00720         0.259069      0.083536      0.668074
O       3.80958     13.49025      2.72551         0.416146      0.240932      0.179921
O       3.82830     13.49724     15.89749         0.586403      0.769268      0.105615
O      15.50930      1.70577      2.78857         0.812422      0.553701      0.106870
O       0.04701      2.04736     15.81341        -1.464911     -0.254505      0.790158
O      15.50244     13.53758      2.51885         0.315760      0.391417      0.884998
O      15.49994     13.49977     16.00531         0.561514      0.409425     -0.405765
O       3.86648      2.07715      7.12416        -0.031631     -0.569042      0.613279
O       3.84006     13.72523      7.13670        -0.204986     -0.086358      0.120423
O      15.54455      2.00512      7.14159        -0.270922     -0.111971      0.290186
O      15.54596     13.55037      7.13197         0.280777      0.478742     -0.335799
O       3.87251      1.92857     11.57616         0.457625     -0.306950      0.242830
O       3.83879     13.63262     11.56949         0.848120     -0.059442      0.161446
O       0.09520      2.00503     11.57377        -1.019025     -0.297201      0.021293
O      15.55469     13.66588     11.58587        -0.137785     -0.085481      0.196061
O       3.91726      5.76477      2.98227        -0.378136      0.208222      0.207264
O       3.92659      5.78959     15.92519         0.299359      0.270092     -0.053229
O       0.05769      5.78906      2.87379        -0.285742      0.321879      0.073912
O       0.03560      5.76131     16.00237         0.495140      0.332959      0.048992
O       3.82595      5.77886      7.17185         0.931603      0.299083      0.316342
O      15.55048      5.90935      7.21460        -0.430599     -0.242704     -0.109096
O       3.91806      5.79304     11.66990        -0.237431      0.307092      0.139217
O      15.56834      5.74015     11.47716         0.272824      0.281599      0.731179
O       3.87667      9.56750      2.81729        -0.873329      0.791185     -0.317359
O       3.95779      9.68016     15.82745         0.193805     -0.094990      0.479842
O      15.53697      9.72978      2.62586         0.721641     -0.136866      0.302811
O       0.01512      9.73294     15.72151         0.291522     -0.160653      1.027743
O       3.80540      9.82194      7.23202         0.527237     -0.358588      0.123429
O      15.51138      9.73541      7.30694         0.972681     -0.016013      0.162531
O       3.91491      9.88989     11.51580         0.021154     -0.120671      0.420029
O      15.56359      9.80557     11.55349         0.594413     -0.161205      0.306877
O       7.75527      1.84315      2.85587         0.050113     -0.010306      0.075148
O       7.80904      1.93801     16.04306         0.195346     -0.118347      0.497686
O       7.76839     13.52215      2.67048        -0.106050      0.060540      0.232598
O       7.77817     13.51659     16.05431        -0.059102      0.273294     -0.021604
O       7.71308      2.02292      7.20292         0.355618     -0.663158     -0.402701
O       7.76506     13.67665      7.10441        -0.550610     -0.064679      0.512671
O       7.83127      1.93111     11.49905        -0.818921     -0.127042      0.543254
O       7.80537     13.76334     11.41337        -0.222098     -0.269267      0.787755
O       7.81212      5.94707      2.76232         0.191908     -0.337380     -0.002749
O       7.89225      5.82421     15.87252        -1.263243      0.052262      0.379096
O       7.77577      5.89682      7.32891        -0.195671     -0.030010     -0.535879
O       7.82852      5.76089     11.51433         0.760052      0.503166      0.505892
O       7.80394      9.77321      2.62318         0.038739     -0.487999      0.663505
O       7.80901      9.65442     15.96481         0.107809     -0.187670      0.178493
O       7.73150      9.69161      7.17693         0.529669      0.354614      0.353454
O       7.86861      9.68850     11.39219        -0.847992      0.210065      0.813734
O      11.59478      1.97362      2.79124        -0.206655     -0.161734      0.285455
O      11.75075      1.89246     16.01582        -0.246988      0.313206      0.054507
O      11.65433     13.51536      2.86893        -0.873981      0.401765     -0.490280
O      11.59731     13.61408     15.91694         0.792019      0.414675      0.203188
O      11.60743      1.85900      7.13188         0.496507      0.037863      0.087965
O      11.68626     13.61620      7.12619         0.058968      0.082613     -0.275046
O      11.72384      2.02227     11.46106         0.131963     -0.182156      0.240697
O      11.64301     13.76304     11.55121         0.186067     -0.431372     -0.084588
O      11.76861      5.80352      2.74197        -0.803978     -0.206313      0.090982
O      11.74356      5.81369     16.06867         1.142148     -0.360321     -0.066107
O      11.67131      5.86687      7.02877        -0.324484     -0.232921      0.656441
O      11.75111      5.77898     11.56514        -0.419304      0.121574      0.279568
O      11.72080      9.84077      2.59386        -0.332493     -0.598051      0.242065
O      11.74058      9.67469     15.86538        -0.617865     -0.066568      0.288603
O      11.73446      9.76317      7.17015        -1.595862      0.592988      0.290703
O      11.74230      9.78648     11.47783        -0.853073     -0.148386      0.792466
O       1.80094      3.81357      2.74688         0.474406     -0.182205      0.411869
O       2.01473      3.89841     16.06343        -0.114904      0.460138     -0.308278
O       1.99344     15.55085      2.73049        -0.334621     -0.626119      0.063466
O       1.80925     15.54209     16.05335         0.434082     -0.553262      0.135840
O      13.64511      3.89581      2.87244         0.260985     -0.594397      0.150529
O      13.71661      3.86170     15.92139        -0.426212      0.364122      0.421396
O      13.45914     15.53191      2.78359         0.157670     -0.390675      0.607753
O      13.73596      0.00625     15.82434        -0.048773      0.055421      0.104736
O       1.88451      3.98749      7.20179        -0.162093     -0.804097      0.138675
O       1.85663      0.02619      7.08855         0.075886     -0.644347      0.412300
O      13.49337      3.87981      6.87517         0.391395     -0.026445      0.972661
O      13.65777     15.52235      7.00094        -0.056253      0.454726      0.447917
O       1.98026      3.86228     11.70274         0.077047     -0.173548     -0.112712
O       1.89728     15.57763     11.50237         0.379469      0.405386      0.505540
O      13.70044      3.86533     11.50895        -0.116391      0.145896      0.239919
O      13.58969      0.08270     11.58616         0.408481     -0.211389     -0.105770
O       1.86588      7.79332      2.73414         0.132930      0.471780      0.433138
O       2.00900      7.77246     16.00668        -0.372316     -0.541939      0.047833
O      13.63946      7.77381      2.64226         0.097923      0.555839      0.159280
O      13.77340      7.73495     15.83098        -0.298120     -0.287846      0.478689
O       1.91221      7.75278      7.23820         0.087455      0.846595      0.348961
O      13.54871      7.90560      7.11044         0.425171     -1.911008      0.302332
O       1.87085      7.76043     11.48989         0.396956      0.705409      0.608416
O      13.70266      7.79975     11.44737        -0.105565     -0.729641      0.727296
O       1.90447     11.57374      2.74339        -0.122747      0.016107      0.093415
O       2.04457     11.63633     15.96002        -0.675350     -0.114378     -0.227988
O      13.57937     11.62399      2.50707         0.390558      0.426610      0.665999
O      13.59348     11.72131     15.79065        -0.116299     -0.358021      0.781304
O       1.93614     11.65783      7.19429        -0.359721      0.767760     -0.056337
O      13.65264     11.67721      7.23070        -0.047001      1.035148     -0.165806
O       1.91689     11.72890     11.53920         0.076268     -0.281374      0.675540
O      13.58710     11.75192     11.50329         0.192264     -0.050153      0.179738
O       5.93685      3.84489      2.76826        -0.224378     -0.242332      0.395791
O       5.90331      3.89299     16.06274        -0.266820      0.341224     -0.136861
O       5.83769     15.43285      2.70838        -0.215404      0.764817      0.369752
O       5.91529     15.55181     15.96236        -0.265592     -0.520462      0.678467
O       5.83720      3.88531      7.06312         0.062758      0.529014      0.521556
O       5.82985      0.01998      7.22720        -0.151344     -0.077983     -0.076900
O       5.77453      3.81506     11.70846         0.487502     -0.466130      0.029734
O       5.83017      0.00495     11.47773        -0.131011     -0.025543      0.449394
O       5.77521      7.81252      2.86697         0.319072     -0.313130      0.353675
O       5.85685      7.73564     15.75392         0.173534      0.002137      0.623051
O       5.77101      7.83604      7.22980        -0.290713     -0.438022      0.395388
O       5.81210      7.84512     11.56617         0.280004      0.089689      0.538567
O       5.74089     11.61023      2.80678         0.183296      0.171164     -0.068607
O       5.86997     11.60620     15.92352         0.063079      0.015802      0.238505
O       5.83773     11.77721      7.26021        -0.179280     -0.256252      0.133185
O       6.03323     11.82061     11.47387        -0.514818     -0.808512      0.475126
O       9.72517      3.87722      2.78065        -0.421174     -0.686924     -0.020481
O       9.74055      3.91905     16.13851         0.399533     -1.224078     -0.074759
O       9.73277     15.49713      2.73515         0.079040     -0.342940      0.228725
O       9.69687     15.53719     15.91027        -0.067667      0.532038      0.514853
O       9.62218      3.86766      6.99687         0.579538      0.256607      0.582953
O       9.63490     15.54938      7.11328         0.157503      0.449401      0.152607
O       9.74732      3.84861     11.43903         0.132642      0.947221      0.688651
O       9.75988      0.01083     11.62986        -0.060072      0.210974      0.027958
O       9.80616      7.72774      2.74923        -0.194264      0.659124     -0.064048
O       9.89015      7.73061     15.86374        -0.368500      0.724203      0.728528
O       9.82223      7.79680      7.06765        -0.627701      0.135039      0.312447
O       9.94812      7.83845     11.40987        -0.599556     -0.588466      0.638674
O       9.68114     11.63383      2.72959         0.191099      0.413215      0.111005
O       9.74667     11.64526     15.86944        -0.033793     -0.375104      0.337304
O       9.64109     11.68833      7.13308         0.199872     -0.358370      0.588458
O       9.83917     11.68933     11.43232        -0.822886      0.710775      0.267132
