  # total energy = -7880.32770664 
CRSYTAL
PRIMVEC
    15.2000000000000000    0.0000000000000000    0.0000000000000000
     0.0000000000000000   15.2000000000000000    0.0000000000000000
     0.0000000000000000    0.0000000000000000    17.000000000000000
PRESSURE
7.7366 7.50055 0.595284 0.157152 0.077416 0.023018
PRIMCOORD
320 1
Pb       3.81328      3.79925      4.22687         0.179258      0.165840     -0.374883
Pb       3.63182      3.75093      0.06509         0.371267      0.258117     -0.149063
Pb       3.81863     15.10456      4.30862         0.074603      0.008502     -0.487747
Pb       3.81590     15.18595      0.03145        -0.244298     -0.162241     -0.014221
Pb      15.10894      3.83724      4.26201         0.182624     -0.444302     -0.453926
Pb      15.11728      3.71884     16.98632         0.230025      0.270221     -0.062848
Pb      15.19791     15.14178      4.13423         0.043108      0.298977      0.283673
Pb       0.01003      0.03241     16.93786        -0.327383     -0.131740     -0.288551
Pb       3.67725      3.66946      8.55480         0.120469      0.684898     -0.642225
Pb       3.72741      0.06593      8.34954         0.305680     -0.258390     -0.067588
Pb      15.05008      3.82481      8.38351        -0.140301      0.104071      0.306205
Pb       0.14093      0.01235      8.60880        -0.705810     -0.160682     -0.712865
Pb       3.76398      3.81827     12.84148        -0.196309     -0.204945     -0.267782
Pb       3.80243     15.08177     12.62293        -0.077214      0.767108      0.570009
Pb       0.04259      3.56905     12.81046         0.104562      0.201073     -0.294853
Pb      15.15800     15.09353     12.61953         0.305267      0.810227      0.538562
Pb       3.70108      7.60078      4.20629         0.569522     -0.093446      0.259073
Pb       3.85193      7.53399      0.11834        -0.016787      0.014795     -0.983206
Pb       0.01714      7.48964      4.18151        -0.453744      0.160250     -0.177593
Pb       0.18052      7.65443      0.06951        -0.956835     -0.622878      0.320152
Pb       3.70066      7.54287      8.53941         0.034914     -0.101795     -0.536653
Pb       0.00447      7.62130      8.52454        -0.477077     -0.652530      0.129928
Pb       3.83814      7.69871     12.78975        -0.345023     -0.064049      0.119852
Pb      15.15864      7.66253     12.73367         0.089757     -1.128421      0.884698
Pb       3.82167     11.40221      4.22169        -0.137694     -0.199743     -0.246453
Pb       3.70918     11.37921     16.89387         0.602043     -0.214844      0.526064
Pb      15.14737     11.33541      4.24320         0.461329      0.387609     -0.386619
Pb       0.01239     11.42117      0.02185        -0.332654      0.070963      0.104834
Pb       3.81110     11.31764      8.38310        -0.047599      0.137583      0.033770
Pb      15.12481     11.33289      8.49045        -0.147652      0.597801     -0.011619
Pb       3.84068     11.36961     12.71079         0.211743     -0.245233      0.005156
Pb       0.00899     11.49840     12.53706         0.077330     -0.474426      1.224838
Pb       7.62862      3.78454      4.20403        -0.028948      0.182691     -0.300514
Pb       7.58037      3.77487     16.92830         0.228407     -0.107470      0.936836
Pb       7.60510      0.11319      4.25495        -0.240811     -0.334929      0.014064
Pb       7.52103      0.03176      0.00300         0.351571     -0.331908     -0.245298
Pb       7.53500      3.88109      8.44999        -0.018046     -0.004097     -0.091118
Pb       7.53416     15.17978      8.43264         0.261232     -0.061209     -0.241129
Pb       7.53459      3.68291     12.66601        -0.060321      0.410162      0.277581
Pb       7.68209      0.08947     12.66043        -0.449330     -0.435232      0.572074
Pb       7.48068      7.66104      4.41482        -0.011359     -0.521962     -0.342087
Pb       7.53017      7.45502     16.92543         0.224856      0.463867      0.675519
Pb       7.63630      7.54135      8.57891        -0.137231     -0.009940     -0.549484
Pb       7.75637      7.52696     12.84303        -0.325034      0.352923     -0.551808
Pb       7.67278     11.42976      4.13458        -0.516498     -0.140238      0.672292
Pb       7.66104     11.31329     16.97089        -0.510609      0.273074      0.131249
Pb       7.56122     11.29216      8.35269        -0.210523      0.227738      0.224964
Pb       7.59233     11.26884     12.76770        -0.435672      0.262908      0.140678
Pb      11.46523      3.63937      4.28296        -0.769856      0.588904     -0.483993
Pb      11.44980      3.89848      0.00170        -0.365571     -0.712310      0.039523
Pb      11.30805      0.01940      4.25953         0.517078      0.056373     -0.159595
Pb      11.30949     15.16290     16.92099         0.576728      0.244718      0.003565
Pb      11.29821      3.74792      8.48441         0.487727      0.109250     -0.144747
Pb      11.34091     15.14284      8.59083        -0.041270     -0.012700     -0.321813
Pb      11.45688      3.80802     12.74755        -0.091064     -0.074926     -0.024952
Pb      11.34427     15.16326     12.85092        -0.049047     -0.018328     -0.071907
Pb      11.38392      7.60879      4.31293        -0.112015     -0.159150     -0.912685
Pb      11.32951      7.53640      0.04717         0.067126      0.069360      0.225518
Pb      11.38531      7.63252      8.33656        -0.013444     -0.184071      0.384775
Pb      11.32573      7.50147     12.62378         0.314155     -0.011021      0.791829
Pb      11.43529     11.50978      4.23491        -0.007943     -0.329343     -0.295156
Pb      11.30143     11.30182      0.11940         0.316704      0.244333     -0.357646
Pb      11.34065     11.35817      8.53680         0.085927      0.316181     -0.372846
Pb      11.49076     11.37992     12.99945        -0.428274      0.249953     -0.278171
Ti       1.88605      1.91528      2.25250        -0.634531     -0.098650     -0.035090
Ti       1.93015      1.86436     15.05418        -1.549617      0.212507     -1.688816
Ti       2.00175     13.29741      2.13901        -0.343181     -0.229678     -0.695173
Ti       1.95040     13.23625     14.95107        -0.747141      1.296591      0.416333
Ti      13.25240      1.92529      2.22449         0.248074     -0.579457     -0.585607
Ti      13.26578      1.91037     14.93829        -0.111789     -0.966321     -0.348684
Ti      13.39856     13.33912      2.22496        -0.529559      0.256259     -1.576307
Ti      13.36064     13.18607     15.06865        -0.637420      1.396660      0.218928
Ti       1.78048      1.91273      6.35337         0.325820     -0.199391      0.550999
Ti       1.85461     13.27377      6.47399        -0.319523     -0.042418      0.040326
Ti      13.22747      1.83605      6.49635         0.033923     -0.096690      0.155926
Ti      13.25989     13.30473      6.46217         0.552742      0.512741     -0.023504
Ti       1.92991      1.91506     10.68850        -1.187102     -0.168197      1.447926
Ti       1.94415     13.23059     10.64723        -0.282664      0.670702     -0.748872
Ti      13.20189      1.89165     10.72802         1.314181      0.124255     -0.098462
Ti      13.18711     13.29662     10.78519         0.013399     -0.085457     -0.408697
Ti       1.90359      5.64391      2.25106        -1.029509     -0.236515     -0.740293
Ti       1.87947      5.69109     15.03252        -0.023744     -0.423711     -0.223808
Ti      13.24627      5.69018      2.21471        -0.765052      0.694699     -0.083847
Ti      13.33311      5.75974     14.96935         0.181961     -1.180567     -0.687834
Ti       1.80833      5.66914      6.42979         0.534819      0.282196      0.577659
Ti      13.24074      5.69879      6.37221         0.264841     -0.614341      0.708453
Ti       1.87799      5.70940     10.71318        -0.516888     -0.389595      0.161399
Ti      13.29741      5.69334     10.75490         0.677697     -0.337856     -1.530325
Ti       1.83067      9.46406      2.30991         0.871823      1.158098      0.018752
Ti       1.80838      9.46100     15.04241         1.306387      0.595224     -1.355034
Ti      13.24832      9.49534      2.28880        -0.275223     -0.099968     -0.044943
Ti      13.24456      9.43557     15.07687         0.173790      0.163635      0.445946
Ti       1.76465      9.47988      6.47316         1.832077      0.246976     -1.235932
Ti      13.31852      9.48944      6.40997        -1.128604      0.467421     -1.369354
Ti       1.86239      9.41613     10.70953         0.368984     -0.135540      0.001138
Ti      13.22534      9.47994     10.80001         0.799479      0.062079     -0.775184
Ti       5.67177      1.86897      2.14917        -0.178663      0.823963      0.499870
Ti       5.64310      1.89757     15.00354         0.058273     -0.969210     -0.776050
Ti       5.79506     13.27161      2.24230        -0.966425      0.156969     -0.253440
Ti       5.65361     13.31423     15.02310         1.313815     -0.263602     -0.421018
Ti       5.64047      1.97699      6.35469         0.218786     -0.759243      0.241819
Ti       5.66871     13.30138      6.43219         0.213023      0.116464     -0.428309
Ti       5.62137      1.93177     10.65020         0.385527      0.141381     -0.409549
Ti       5.70779     13.30033     10.67053         0.361405     -0.159292     -0.020246
Ti       5.70364      5.69365      2.22763        -0.186005     -0.686749     -1.045064
Ti       5.72286      5.61174     14.98050        -1.196253      0.380811      0.146515
Ti       5.62100      5.70712      6.58752         0.056545      0.372888     -1.386213
Ti       5.64139      5.75995     10.85730        -0.105010     -1.338109     -1.057644
Ti       5.67582      9.45836      2.25784        -0.217084      0.656856     -0.989983
Ti       5.73919      9.48734     15.02815        -1.134421      0.244812     -0.728511
Ti       5.60957      9.42761      6.45976        -0.232538      0.611438     -0.354549
Ti       5.69163      9.45164     10.66914         1.068374      1.226767     -0.664520
Ti       9.46039      1.87776      2.21533         0.814748      1.312891     -1.244466
Ti       9.44270      1.88460     14.97572         1.076660      0.132551     -0.190123
Ti       9.53196     13.31821      2.28070         0.511485      0.226802     -1.373736
Ti       9.47542     13.25771     15.07084        -0.042386      0.417780     -1.375847
Ti       9.44046      1.91333      6.50940         0.595844     -0.599025     -0.475765
Ti       9.49339     13.27441      6.46562         0.077837      0.801936     -0.457934
Ti       9.45266      1.93243     10.69150         0.433250     -1.000345     -0.108882
Ti       9.42857     13.24524     10.87221         0.749206      0.647289     -1.140192
Ti       9.41966      5.69999      2.26851         0.832070     -0.582512     -0.004370
Ti       9.53436      5.65334     15.00068        -0.721529     -0.147536     -1.655303
Ti       9.54061      5.69178      6.39610        -1.685250     -0.155480     -1.063074
Ti       9.47070      5.67818     10.76536         0.147255     -0.431959     -0.459665
Ti       9.41045      9.42544      2.29918         0.801867     -0.417026     -0.798394
Ti       9.45078      9.42232     14.99456         0.880438      0.845836     -0.321262
Ti       9.43797      9.49434      6.37658         0.222680     -0.523201     -0.454677
Ti       9.50577      9.52837     10.71359        -0.871125     -0.037610     -0.746484
O       1.75347      2.02590      0.45373         0.162075     -0.372184     -0.158137
O       1.96637      2.01378     13.22670        -0.280229     -0.270747      0.154013
O       2.06649     13.30403      0.29721        -0.603969     -0.188950      1.237191
O       1.96491     13.35640     13.18272         0.005179     -0.498560     -0.679921
O      13.34986      1.93796      0.41357        -0.263656     -0.007436      0.430040
O      13.18305      1.83618     13.09552         0.320426      0.509982      0.876428
O      13.41714     13.27967      0.37775        -0.269455      0.143987      0.794844
O      13.25460     13.11624     13.25919         0.149291      0.067692     -0.676966
O       1.73488      1.84478      4.61636         0.631975      0.187414     -0.700291
O       1.90751     13.29923      4.69508        -0.034550      0.007992     -0.282796
O      13.16312      1.86968      4.70728         0.144708      0.075726     -0.171453
O      13.24209     13.44111      4.67021         0.302448     -0.869725     -0.048100
O       1.90396      1.79688      8.90815         0.054565      0.373480     -0.422356
O       1.99241     13.30115      8.82065        -0.188074      0.107134      1.368427
O      13.25495      1.90670      8.93614         0.324129     -0.136706     -0.236702
O      13.07057     13.29963      9.03298         0.479443     -0.150507     -0.835980
O       1.82710      5.60682      0.44035         0.473002      0.402138      0.289083
O       1.83675      5.68342     13.25669         0.217251      0.195708     -0.174066
O      13.22724      5.77695      0.42179        -0.090105     -0.275464      0.165486
O      13.17972      5.72185     13.14057         0.095444     -0.013301      0.405917
O       1.82681      5.68599      4.65218         0.125305      0.220014     -0.300520
O      13.21409      5.58827      4.61530         0.136052      0.324503     -0.319494
O       1.90687      5.69940      8.92314         0.054825      0.155577     -0.175699
O      13.34881      5.77072      8.88455        -0.393687     -0.253115      1.032109
O       1.87785      9.42209      0.54101         0.304815      0.258861     -1.175139
O       1.78706      9.35792     13.23847         0.272140      0.117319      0.026289
O      13.23392      9.55179      0.49623        -0.061291     -0.289624      0.175555
O      13.27026      9.57836     13.31110         0.220193     -0.258745     -0.888143
O       1.84021      9.56217      4.59955        -0.226433     -0.392874      1.026651
O      13.33431      9.63580      4.55294         0.031282     -0.233734      1.669848
O       1.85821      9.42647      8.92458        -0.103740      0.158391      0.037052
O      13.41923      9.52069      9.02579        -0.648991     -0.399824     -0.527647
O       5.64086      1.89027      0.37357         0.250995     -0.151102     -0.038942
O       5.66662      1.86010     13.15939        -0.074187      0.018360      1.320290
O       5.69755     13.23694      0.45515         0.179230      0.214286      0.220008
O       5.59276     13.41638     13.24920         0.074125     -0.184477     -0.602669
O       5.75611      1.90394      4.56018        -0.313397      0.296742      0.265505
O       5.65940     13.41163      4.62658         0.099999     -0.401243      0.608914
O       5.50944      2.15469      8.83602         0.654376     -0.829361      0.498038
O       5.76597     13.22480      8.89400        -0.179229      0.044190     -0.264698
O       5.78834      5.69664      0.36266        -0.668443      0.140342      1.247119
O       5.68513      5.52267     13.17064         0.105933      0.863511      0.706552
O       5.57972      5.73441      4.77508         0.305816     -0.040000     -0.096941
O       5.69376      5.69244      8.99883        -0.172197     -0.087913      0.454255
O       5.77531      9.60116      0.40761        -0.405576     -0.544180      0.849357
O       5.80095      9.40653     13.19325         0.026035      0.106866      0.220615
O       5.55719      9.49776      4.66448        -0.015492     -0.440286     -0.318564
O       5.79166      9.51165      8.84403        -0.510482      0.073501      0.296566
O       9.56697      1.96385      0.43244        -0.148355     -0.468411     -0.351275
O       9.42101      1.83145     13.16016         0.314712      0.357956      0.450229
O       9.51843     13.33277      0.45107        -0.146072     -0.010826      0.203230
O       9.56123     13.29467     13.19766        -0.339680     -0.292803      0.691730
O       9.46328      1.97191      4.68215         0.034153     -0.165705      0.090053
O       9.56269     13.36492      4.66206        -0.155476     -0.504902      0.035424
O       9.38739      1.86014      8.88752         0.087629      0.126380      0.210461
O       9.55116     13.29856      9.03863        -0.322802      0.009837     -0.303425
O       9.43328      5.80330      0.44662        -0.006810     -0.088914     -0.288527
O       9.54789      5.61502     13.07211        -0.093023      0.641635      1.635877
O       9.41469      5.60697      4.56779         0.113688      0.164478      1.491763
O       9.40471      5.69420      8.94068         0.184349     -0.030789      0.588577
O       9.41220      9.38503      0.40905         0.214505      0.379440      1.516599
O       9.44609      9.53300     13.16719        -0.169679     -0.269755     -0.057109
O       9.58135      9.52876      4.57383        -0.452780      0.024363      0.755127
O       9.54539      9.45738      8.87421        -0.225379      0.140972      0.517574
O       3.75479      2.01820      2.39272         0.246792     -0.356197      0.651906
O       3.71051      1.84676     15.39206         2.452838      0.265361      0.229799
O       3.84817     13.27077      2.57539         0.090225      0.381964      0.205136
O       3.80840     13.29488     15.36225        -0.411424     -0.232237     -0.010630
O      15.14096      1.98686      2.63580         0.185322     -0.214417     -0.080909
O       0.00030      1.96126     15.27429        -0.973099      0.012182      0.161770
O       0.10039     13.32318      2.44928        -0.279024     -0.019526      0.446729
O       0.02855     13.29099     15.27207        -0.337467     -0.029935      0.304165
O       3.76918      1.88778      6.66369        -0.812845      0.462762      0.206376
O       3.77347     13.24511      6.72307         0.197094     -0.078419      0.406298
O      15.12921      1.92431      6.74247         0.154253     -0.201550      0.518393
O       0.01609     13.31564      6.89524        -1.073116     -0.059835      0.049509
O       3.79365      1.97172     11.00346        -0.907900      0.226161      0.113947
O       3.77503     13.24132     11.09664         0.060089     -0.211439     -0.226564
O      15.19146      1.80185     11.13409        -0.013687      0.001503     -0.161754
O       0.04233     13.37834     10.99010        -0.149570     -0.438760      0.032117
O       3.75787      5.69294      2.58314         0.522850      0.308462     -0.010880
O       3.78068      5.54432     15.38565         0.931176      0.880802     -0.096008
O      15.13122      5.62424      2.55833         0.547162      0.540132      0.374238
O      15.19540      5.79109     15.30940        -0.163020     -0.277866      0.103998
O       3.71206      5.74509      6.76875         0.092045     -0.169569      0.552433
O      15.11886      5.63813      6.73062         0.300646      0.377119      0.158536
O       3.73265      5.60915     11.21271         0.909533     -0.006969     -0.318891
O      15.19219      5.92901     10.91871         0.099396      0.126964      0.633524
O       3.81292      9.54438      2.56746        -0.032938     -0.610033      0.062100
O       3.82748      9.61931     15.20768        -0.611083     -0.165532      0.490638
O      15.17771      9.41109      2.55479        -0.274623      0.591592      0.244820
O       0.00490      9.42730     15.52072        -1.062023      0.242835     -0.364897
O       3.70752      9.58047      6.82434        -0.279241     -0.394133      0.028592
O      15.14122      9.47832      6.91333        -0.458500     -0.140544     -0.256916
O       3.88163      9.53492     11.07500        -1.599278      0.225333      0.247584
O      15.18590      9.18376     11.14175         0.344339      1.334356     -0.887189
O       7.59783      2.00191      2.37754        -0.494200     -0.308292      0.744358
O       7.59916      1.81189     15.35168        -0.719232      0.348723     -0.040281
O       7.65361     13.33178      2.68291        -0.478172      0.250108     -0.224048
O       7.58987     13.38506     15.33938         0.382737     -0.103044      0.239756
O       7.58497      1.84625      6.68978        -0.597205      0.091224      0.574749
O       7.58125     13.38033      6.77497         0.115458     -0.256370      0.216045
O       7.54335      1.83127     11.01559        -0.008826     -0.014167     -0.102714
O       7.56749     13.49198     11.08294        -0.768034     -0.347291      0.040562
O       7.50209      5.78069      2.54755         0.998894     -0.622478      0.447639
O       7.59788      5.67580     15.36040        -0.445186      0.091244     -0.606181
O       7.59318      5.79909      6.86552        -0.114223     -0.721167     -0.023701
O       7.57664      5.71858     11.18750        -0.193340      0.202400     -0.351810
O       7.54845      9.48738      2.70193         0.663583     -0.089589     -0.058920
O       7.61952      9.53135     15.33387        -0.458613     -0.185095     -0.002411
O       7.48045      9.41240      6.55364         2.257753      0.259222      0.611781
O       7.61389      9.33442     10.93471        -0.072751      0.199040      0.702851
O      11.36602      1.89840      2.62314         0.832638     -0.266359      0.017614
O      11.40693      1.96577     15.32651        -0.460362     -0.015721     -0.104048
O      11.43673     13.31197      2.49217        -0.143097      0.016033      0.404411
O      11.40055     13.31635     15.33358        -0.226182     -0.325267      0.266049
O      11.35685      1.85324      6.96197        -0.024908      0.327580     -0.299711
O      11.36856     13.21087      6.77549        -0.044743     -0.075113      0.391958
O      11.36730      1.97086     10.94043        -0.449539      0.145633      0.281326
O      11.34605     13.17497     11.10028         0.481519     -0.342478      0.641026
O      11.30991      5.78280      2.51160         1.280811     -0.119427      0.065328
O      11.30119      5.75601     15.34834         1.293583      0.005712      0.110564
O      11.36135      5.65368      6.76618         0.181905      0.416902      0.282793
O      11.39318      5.53207     11.02536        -0.449999      0.356059      0.023961
O      11.35308      9.51240      2.60886         0.188165      0.180618     -0.247831
O      11.35460      9.51900     15.31605         0.187849     -0.302517      0.289072
O      11.40420      9.43717      6.76470         0.185832      0.291899      0.076479
O      11.37918      9.66789     11.01594        -0.304454      0.010367      0.376394
O       1.87464      3.82552      2.62986         0.032758     -0.444913      0.336384
O       1.94097      3.78766     15.36867        -0.629344      0.457520      0.101462
O       1.94745      0.01648      2.49633        -0.079784     -0.159438      0.160875
O       1.82696      0.00797     15.32923         0.335133     -0.678649      0.182776
O      13.24005      3.82541      2.55213        -0.291057     -0.405426      0.107170
O      13.28607      3.86272     15.30633        -0.172531     -0.329590      0.016469
O      13.37857      0.01646      2.60059        -0.392592      0.132153     -0.275143
O      13.24896      0.00626     15.28104         0.378026      0.017035      0.175613
O       1.82102      3.80516      6.73049         0.241130     -0.325414      0.301181
O       1.83358      0.02440      6.82793         0.323803     -0.217778      0.008257
O      13.23772      3.77485      6.77055        -0.149505      0.249555      0.341965
O      13.27360     15.13931      6.76636        -0.159745      0.565264      0.728275
O       1.72713      3.80663     11.03758         0.353586     -0.061707     -0.058300
O       1.85720      0.03080     11.14494         0.768177     -0.904941     -0.800853
O      13.42559      3.77553     11.05539        -0.200246      0.649447      0.105805
O      13.20818     15.17099     11.07759        -0.026658     -0.092309      0.206885
O       1.85803      7.55866      2.54231         0.130385     -0.066146      0.397683
O       1.92413      7.65856     15.47140         0.717150     -1.350573      0.079636
O      13.29248      7.60048      2.72768        -0.156065      0.143281     -0.350614
O      13.26957      7.52714     15.38125        -0.327467      1.899434      0.068370
O       1.83493      7.63151      6.88277        -0.060842     -0.644407     -0.372138
O      13.26835      7.59063      6.63443         0.042521      0.262439      0.325291
O       2.16580      7.60623     11.01799        -0.480560     -0.451621      0.235807
O      13.11018      7.59916     11.12370        -0.116589     -0.058478     -0.008404
O       1.95648     11.39749      2.46463        -0.395354      0.180413      0.358300
O       1.76422     11.40010     15.25772         0.616451     -0.527660      0.406044
O      13.35984     11.49986      2.60456        -0.113938     -1.268869      0.134473
O      13.26161     11.34357     15.46188         0.183458     -0.089237     -0.105377
O       1.70267     11.33388      6.82477         0.651430      0.646330      0.076685
O      13.29883     11.39203      6.82024         0.158886     -0.417218      0.111025
O       1.84489     11.29170     10.99594         0.036159      1.331225      0.106807
O      13.48695     11.37032     11.02084        -0.320658     -0.022472      0.322792
O       5.64041      3.79637      2.55995         0.217510      0.534930      0.213666
O       5.75387      3.71441     15.43326        -0.350474      0.627144     -0.710390
O       5.69592      0.04780      2.65842         0.028113     -0.542679     -0.616918
O       5.64641     15.19436     15.52356         0.042421      0.499147     -0.523946
O       5.70242      3.80596      6.74148         0.027588      0.306226      0.305119
O       5.59060      0.06443      6.69226         0.345512     -0.909013      0.630695
O       5.68015      3.78644     11.15683         0.264488      0.189198     -0.356086
O       5.53420      0.01962     10.83535         0.118799     -0.227484      0.253701
O       5.74223      7.57444      2.64865        -0.894954      0.622175     -0.331055
O       5.60210      7.58747     15.35698         0.294464     -0.777852     -0.180953
O       5.66193      7.60716      6.84525        -0.419666     -0.452613      0.350729
O       5.59391      7.63214     11.01499         0.045662     -1.435854      0.473696
O       5.74762     11.41285      2.60097         0.152606     -0.252715      0.209583
O       5.81536     11.41817     15.16822        -0.278035     -0.024266      0.541972
O       5.74231     11.35649      6.71607        -0.245872      1.162602      0.459641
O       5.70542     11.37230     11.05736         0.508050      0.640967      0.329202
O       9.61375      3.79808      2.51032        -0.880225      0.366935      0.393882
O       9.47743      3.82374     15.35624        -0.144148     -0.320287     -0.138105
O       9.52120      0.03960      2.56068        -0.310660     -0.791189      0.333505
O       9.50230      0.03321     15.27400         0.370842     -0.475665      0.467544
O       9.50249      3.79795      6.82259        -0.322450      0.234432      0.184517
O       9.56390     15.18911      6.72866        -0.343312     -0.407621      0.507552
O       9.42100      3.75127     11.14181        -0.118749      0.344652     -0.550789
O       9.59539      0.00972     11.18125        -0.186384      0.338124     -0.335465
O       9.55571      7.54234      2.74347        -0.834241      1.659429     -0.382890
O       9.37778      7.60938     15.30687         0.285111     -0.932892     -0.360438
O       9.45840      7.58597      6.71647         0.437927      0.142137      0.238894
O       9.54985      7.59160     11.02087         0.219675     -0.111655      0.293137
O       9.46359     11.41104      2.49857         0.009980     -0.478275      0.269879
O       9.50481     11.37705     15.35251        -0.120997      0.094049      0.137860
O       9.47578     11.31895      6.74984        -0.250936      0.884861      0.275105
O       9.24098     11.40825     11.05560         0.352190     -0.947896      0.024742
