  # total energy = -7867.36273774 
CRSYTAL
PRIMVEC
    15.010000000000000    0.0000000000000000    0.0000000000000000
     0.0000000000000000   15.010000000000000    0.0000000000000000
     0.0000000000000000    0.0000000000000000    16.400000000000000
PRESSURE
18.4017 18.1312 9.651 0.204426 0.020383 -0.028036
PRIMCOORD
320 1
Pb       3.58186      3.65073      3.98344         0.139828      0.398596      0.420665
Pb       3.67396      3.70345     16.34156        -0.337352     -0.381804      0.351797
Pb       3.82441     14.87169      4.11695        -0.370902      0.408432      0.026576
Pb       3.79206     14.98312      0.06884        -0.095571      0.254454     -0.039284
Pb      15.00840      3.78954      4.20991        -0.001976      0.005185     -0.938682
Pb      14.93020      3.72494      0.13325         0.509812      0.060800     -0.060066
Pb      14.93897     14.99890      4.19934         0.275733     -0.061524     -0.718262
Pb       0.05211      0.01541      0.03874         0.057653      0.024137      0.052504
Pb       3.67065      3.70660      8.17634        -0.323273      0.140879     -0.077142
Pb       3.72730      0.15806      8.22380         0.084184     -0.753348      0.142520
Pb      14.86771      3.67132      8.14548         0.411656      0.341051      0.139695
Pb      14.98625      0.07549      8.21318        -0.270339      0.015539      0.060104
Pb       3.75106      3.64853     12.45646        -0.045439     -0.035927     -0.451649
Pb       3.69390     14.98266     12.26561        -0.152814      0.103024     -0.063131
Pb      14.89469      3.78771     12.32654         0.167894     -0.389828     -0.280532
Pb      14.95072      0.00242     12.33129        -0.327869      0.095043     -0.489548
Pb       3.90550      7.54038      4.19564        -0.590744     -0.277592     -0.610636
Pb       3.76784      7.59496     16.32149        -0.677787     -0.300927      0.441853
Pb       0.12133      7.53200      4.14381        -0.532151     -0.023472     -0.027922
Pb       0.09491      7.41774      0.04479        -0.665661      0.586149     -0.419405
Pb       3.73504      7.49448      8.37294        -0.137940     -0.532502     -0.728672
Pb       0.02363      7.52086      8.18408        -0.213774     -0.225858     -0.115405
Pb       3.69137      7.32766     12.39502        -0.058569      0.429939     -0.204049
Pb      14.94822      7.55710     12.31358        -0.553284     -0.105374     -0.057690
Pb       3.88837     11.10851      4.05147        -1.134219      0.336822      0.702688
Pb       3.76941     11.30905      0.17181        -0.349190     -0.199506     -0.733475
Pb       0.04459     11.20616      4.16598        -0.202143      0.138053     -0.084995
Pb       0.06999     11.17137      0.09149        -0.610443     -0.052660     -0.395784
Pb       3.69890     11.30821      8.21122         0.444065      0.121931      0.240693
Pb       0.01961     11.28723      8.15787        -0.254427     -0.139401     -0.172242
Pb       3.72931     11.12443     12.34700         0.080535      0.611276     -0.469381
Pb      14.99797     11.19531     12.30214        -0.502777      0.076866     -0.072809
Pb       7.41509      3.83297      4.10926         0.192314     -0.201050     -0.680166
Pb       7.44462      3.68700      0.07507        -0.235994     -0.190099     -0.149026
Pb       7.50679     14.95749      4.06727         0.110020      0.083347     -0.271099
Pb       7.64311     14.90519      0.03336        -0.947910      0.387878     -0.026678
Pb       7.43048      3.82018      8.27447        -0.037403     -0.731402     -0.164004
Pb       7.37609     14.95192      8.24610         0.704525      0.136372     -0.140402
Pb       7.42727      3.72243     12.39984         0.432376     -0.073160     -0.135378
Pb       7.40998      0.08999     12.22169         0.430910     -0.157543      0.211040
Pb       7.63982      7.43020      4.18860        -0.510014      0.228964     -0.736305
Pb       7.47874      7.42214     16.38700        -0.187323     -0.076034     -0.102927
Pb       7.56523      7.43755      8.15087        -0.482846      0.111338     -0.217430
Pb       7.43871      7.55241     12.22041         0.180311     -0.189544      0.325204
Pb       7.47759     11.11659      4.15046         0.397780      0.066438     -0.450569
Pb       7.46272     11.23239     16.38263         0.018684      0.378563     -0.134412
Pb       7.54379     11.25737      8.21589        -0.463355      0.287069      0.458100
Pb       7.47276     11.30318     12.30391         0.011100     -0.056950     -0.305983
Pb      11.34842      3.74816      4.18305        -0.217110     -0.317773     -0.687649
Pb      11.23080      3.73918      0.08024         0.045492      0.018481     -0.409156
Pb      11.18942     14.91926      4.09062        -0.058346      0.127953     -0.325756
Pb      11.37751     14.99901     16.37050        -0.265188     -0.246801     -0.247995
Pb      11.17148      3.67012      8.34887         0.739029      0.021306     -0.490518
Pb      11.20442     15.00165      8.18231        -0.067280     -0.079878     -0.098693
Pb      11.16761      3.74424     12.35181         0.044355     -0.043853      0.169849
Pb      11.16780     14.81918     12.35204         0.705371      0.646099     -0.217986
Pb      11.28829      7.50384      4.09928        -0.218562      0.262779      0.197574
Pb      11.24960      7.43346     16.35867         0.375345     -0.098225     -0.294404
Pb      11.33274      7.49305      8.22527         0.109537     -0.220430     -0.376425
Pb      11.04894      7.55169     12.34952         0.940270     -0.503592      0.305717
Pb      11.16990     11.22587      4.10831         0.309047     -0.219833     -0.427062
Pb      11.16324     11.37092      0.00282         0.817125     -0.322075     -0.176376
Pb      11.32056     11.37392      8.15320         0.148106     -0.338878      0.085545
Pb      11.17802     11.20607     12.35619         0.106119      0.135839     -0.336900
Ti       1.77429      1.80749      2.20623         0.500472      0.874402     -1.355066
Ti       1.79042      1.82076     14.34855         1.085725      0.485198      1.119433
Ti       1.82697     13.09036      2.23788         0.357870      1.058708     -0.477931
Ti       1.80054     13.10899     14.47590         0.712698      0.232882      0.397991
Ti      13.06762      1.85239      2.07471         0.988732      0.381024      0.173576
Ti      13.11060      1.92243     14.43466         0.109709     -1.381851     -0.913373
Ti      13.12976     13.12391      2.06529        -0.327536      0.057897      0.416842
Ti      13.17986     13.09477     14.37924        -1.468501      0.253640      0.476353
Ti       1.86953      1.81193      6.15158        -0.962433      0.891257      0.686723
Ti       1.89257     13.18501      6.21798         0.211603     -1.510604     -0.753054
Ti      13.05199      1.82126      6.08242         0.396950      0.509951      1.765564
Ti      13.11848     13.18457      6.08749         0.210250     -1.438026      0.757159
Ti       1.81899      1.90098     10.28419         0.530031     -0.947879      0.285204
Ti       1.84816     13.09276     10.28046         1.085239      1.561401     -0.173574
Ti      13.09351      1.92922     10.35850         0.948382     -1.741729      0.361479
Ti      13.15806     13.07364     10.27079        -0.765587      1.122222      0.793316
Ti       1.81187      5.67730      2.10537         0.030494     -1.014950     -0.020903
Ti       1.73762      5.55246     14.37635         1.467704      0.569626      1.097924
Ti      13.06360      5.68931      2.10351         1.135929     -0.609835     -0.443419
Ti      13.08104      5.58644     14.30288         0.401344      1.148653      1.415197
Ti       1.84536      5.63461      6.20016        -0.313937     -0.358330     -0.120391
Ti      13.06660      5.57967      6.16871         0.210285      1.044271      0.801535
Ti       1.82889      5.57898     10.39662        -0.265970     -0.354450     -1.091090
Ti      13.06931      5.64974     10.32317         0.082073      0.361405     -0.222188
Ti       1.83116      9.39950      2.13098         1.120173     -0.540906     -0.055749
Ti       1.84317      9.38254     14.30487        -0.092513     -0.506284      1.761715
Ti      13.07163      9.41679      2.12466         0.853386     -0.046934     -0.139678
Ti      13.09383      9.35184     14.51131         0.928893     -0.310057     -0.963488
Ti       1.93513      9.42322      6.21076        -0.543117     -0.575368     -0.321459
Ti      13.15258      9.38991      6.17551         0.180035      0.028485      0.206231
Ti       1.84070      9.31649     10.30399        -0.706943      0.429267     -0.400831
Ti      12.99449      9.40491     10.28361         1.961288     -0.621690      0.819588
Ti       5.55796      1.89058      2.19306         1.210886     -1.708605     -1.366741
Ti       5.61410      1.80219     14.45616        -0.731236      0.226144      0.347382
Ti       5.62404     13.03986      2.17926         0.348894      1.429164     -1.039723
Ti       5.56210     13.11449     14.32829         0.749085      0.432893      0.462632
Ti       5.70577      1.87291      6.18909        -1.377331     -0.427541      0.117619
Ti       5.61921     13.12103      6.17441        -0.522401      0.015545      0.518913
Ti       5.63353      1.93313     10.27116        -0.064534     -0.651878      0.749017
Ti       5.60163     13.14610     10.34455        -0.315428     -0.589272     -0.632418
Ti       5.50932      5.55158      2.01607         0.472237      1.152212      0.490945
Ti       5.55237      5.62371     14.41592         0.446860     -0.654283      0.005605
Ti       5.55023      5.55869      6.17945        -0.382980      0.840412      0.762756
Ti       5.63344      5.58348     10.30756        -0.763679      0.092883      0.217466
Ti       5.70839      9.30718      2.07304        -0.887471     -1.615227     -0.167760
Ti       5.62395      9.36441     14.38413         0.403984      0.465571      0.314809
Ti       5.63964      9.36220      6.24206        -0.456780     -0.395823      0.303442
Ti       5.52135      9.35069     10.24433         1.105476      1.252402      1.255040
Ti       9.39099      1.90227      2.14685        -0.877895     -0.539273     -0.028665
Ti       9.36275      1.81979     14.43679        -0.281535      0.355860     -0.604768
Ti       9.38811     13.08283      2.07599         0.367058      0.280403      0.788467
Ti       9.34415     13.12301     14.41807        -0.204847      0.155852      0.044333
Ti       9.34360      1.88906      6.12077         0.438224     -2.367080      0.826344
Ti       9.34043     13.04032      6.17655         0.354757      2.139657      0.238042
Ti       9.47956      1.85313     10.36525        -2.026396     -0.273203      0.531073
Ti       9.37983     13.11495     10.24282        -0.006412      0.174879      0.945878
Ti       9.40596      5.55899      2.10625        -2.209208      0.347133      0.346719
Ti       9.31923      5.53451     14.47569         0.085150      0.403214     -0.407459
Ti       9.35605      5.50230      6.16929         0.483615      1.451295      0.481832
Ti       9.39803      5.58112     10.23458        -0.091990      0.375892      1.425069
Ti       9.37396      9.28260      1.93332         0.346332      0.738660      2.134036
Ti       9.36395      9.34620     14.43320         0.270467     -0.148843      0.035291
Ti       9.38378      9.35812      6.27870         0.546372     -0.491408     -0.496531
Ti       9.32355      9.34997     10.29105        -0.566489      1.418298      0.230223
O       1.85015      1.88955      0.34942        -0.372140     -0.342097      0.541487
O       1.96335      1.87266     12.56663        -0.313441      0.110858     -0.576773
O       2.00921     13.10341      0.37957        -0.518679     -0.072743      0.202166
O       1.69084     13.18409     12.72235         0.467064     -0.310717     -1.319580
O      13.19973      1.90341      0.21621        -0.377512     -0.071902      0.144928
O      13.20469      1.90306     12.60457        -0.258382      0.227072      0.083140
O      13.12308     13.18863      0.28414        -0.232023     -0.183673     -0.778165
O      13.22502     13.06381     12.58072        -0.260091     -0.143676     -0.130251
O       1.83771      1.92681      4.37174        -0.143382     -0.099199     -0.550273
O       1.91662     13.12700      4.39976        -0.637845      0.065053     -0.015318
O      13.11379      1.79361      4.33320        -0.210597      0.385948     -0.791461
O      13.10560     13.30676      4.31278         0.056700     -0.630148     -0.370425
O       1.74260      1.83322      8.48076         0.118364     -0.103050     -0.778431
O       2.03531     13.13324      8.45929        -0.340620      0.094516     -0.353017
O      13.11365      1.80629      8.53674        -0.248100      0.121255      0.031459
O      13.08127     13.05981      8.47426         0.173153     -0.009968     -0.529279
O       1.80001      5.70218      0.30388        -0.242759     -0.209139     -0.810502
O       1.78278      5.56088     12.61504         0.573977      0.048736     -1.681111
O      13.04412      5.58602      0.27696         0.497269      0.102818      0.427502
O      13.08366      5.70407     12.55081         0.099271     -0.254807     -1.059065
O       1.85099      5.64795      4.34605        -0.135209     -0.377776      0.577701
O      13.04989      5.58356      4.34755        -0.088464      0.063230     -0.118864
O       1.79058      5.65505      8.54799         0.345251     -0.035768     -0.072576
O      13.00008      5.54221      8.50210        -0.035183      0.484952     -0.387763
O       1.89103      9.39170      0.30953        -0.187567      0.007735     -0.260791
O       1.76273      9.33697     12.53142         0.592856      0.430065     -0.834473
O      13.23065      9.45020      0.34863        -0.572686     -0.439590     -0.819697
O      13.12986      9.18540     12.63381        -0.191119      0.827527      0.173608
O       1.92075      9.44255      4.38147        -0.497635     -0.374484     -0.537751
O      13.12301      9.37745      4.40149         0.176532      0.002805     -1.073687
O       1.87147      9.34931      8.45106         0.321816     -0.164825      0.099959
O      13.18254      9.50774      8.52568        -0.301692     -0.070696     -1.482024
O       5.60337      1.88795      0.35192         0.030176     -0.054843     -0.501920
O       5.45132      1.83493     12.62243         0.436029     -0.110780     -0.441625
O       5.58181     13.08435      0.28510         0.121318     -0.491658      1.123658
O       5.63245     13.26706     12.50764        -0.005280     -0.391829      0.577790
O       5.65826      1.75533      4.40508         0.093026      0.579211     -0.190686
O       5.64075     13.10366      4.35590         0.603084      0.155053     -0.452583
O       5.69071      1.96885      8.50284         0.197262      0.045821     -1.562232
O       5.60813     13.10105      8.48463        -0.273787     -0.077161      0.235571
O       5.57864      5.47830      0.23583         0.156728      0.637646     -0.234911
O       5.59888      5.64712     12.55998         0.208922      0.373590      0.399109
O       5.49009      5.69272      4.41508         0.351640     -0.578866     -1.075007
O       5.47487      5.55333      8.49819         0.453855     -0.145783      0.061859
O       5.64967      9.33433      0.26884         0.510970      0.524838     -0.461663
O       5.49670      9.35501     12.61519         0.373408     -0.364346     -1.011197
O       5.60544      9.24809      4.39618         0.806922      0.436908      0.000681
O       5.51874      9.36824      8.46692         0.124739      0.168948     -0.628553
O       9.28990      1.99291      0.31795         0.280119     -0.539457      0.505651
O       9.37500      1.92709     12.60459        -0.119632     -0.193230      0.482370
O       9.38768     13.07652      0.29668        -0.252193      0.377693     -1.130149
O       9.38882     13.10011     12.62881        -0.074833     -0.074244     -0.731304
O       9.42056      1.73413      4.35691        -0.466508      0.773782     -0.042899
O       9.49417     13.12568      4.36149        -0.861646     -0.479453     -0.019266
O       9.46856      1.87054      8.58379        -0.171396      0.002267     -0.887058
O       9.44215     13.13383      8.46294        -0.347025     -0.124673     -0.885982
O       9.33727      5.57581      0.30710         0.047758     -0.104599     -0.724090
O       9.29105      5.52426     12.68299         0.086268      0.186551     -0.738917
O       9.40082      5.62738      4.37558        -0.210515     -0.278908     -0.091373
O       9.49048      5.64262      8.45354        -0.242762     -0.111568     -0.777725
O       9.33507      9.27993      0.18380         0.002331      0.125893     -0.639324
O       9.43082      9.32548     12.61293        -0.099580      0.483774     -0.548067
O       9.32311      9.48266      4.46079        -0.067841     -0.324230     -0.071316
O       9.24380      9.39141      8.50596         0.531470     -0.405898     -0.845836
O       3.75679      1.75301      2.44909        -1.688733      0.093740      0.198355
O       3.68074      2.01453     14.67209         0.392492     -0.026053      0.206941
O       3.73793     13.16205      2.49295         0.918779     -0.164049     -0.521518
O       3.74916     12.93136     14.67577        -0.243638     -0.101461     -0.234075
O      14.93196      1.93378      2.48545         0.120909      0.029663     -0.189726
O      15.00766      1.62828     14.66452        -0.855580      0.279124      0.098908
O      14.96606     13.01438      2.40630         0.513177      0.040174      0.133231
O      14.94362     13.25764     14.75847         1.111228      0.286438      0.355000
O       3.65655      1.74368      6.45265         2.227591      0.032980      0.303545
O       3.80052     13.42475      6.24463        -0.571078     -0.543487      0.992271
O      14.91975      1.98743      6.48839         0.409699     -0.484618     -0.292690
O      15.00926     12.97819      6.39736         0.257482      0.097986      0.259737
O       3.76670      1.85523     10.26790        -0.750538     -0.016393      0.963983
O       3.72359     13.24739     10.67474        -0.079607     -0.008339     -0.053731
O      14.98060      1.86648     10.56657        -0.655214      0.572403      0.302002
O       0.02133     13.03512     10.43946        -0.514782     -0.242977      0.321808
O       3.66105      5.89690      2.25661         0.969743     -0.765172      0.433717
O       3.69519      5.47454     14.72807         0.335935      0.379529     -0.619639
O      14.95080      5.44955      2.40212        -0.269803      0.600534      0.019351
O      14.99486      5.80936     14.58148        -1.270698      0.012813      0.530090
O       3.67518      5.67351      6.51171         0.284291      0.352599      0.111938
O      14.94371      5.47560      6.52204         0.375289      0.072036     -0.340475
O       3.75010      5.71650     10.68390         0.019315     -0.362335     -0.457146
O      14.92182      5.54623     10.66847         0.599168      0.011325     -0.251673
O       3.78333      9.37449      2.24108        -0.057082     -0.503308      0.640775
O       3.80593      9.50867     14.65920        -1.408501      0.309659      0.200746
O       0.00311      9.57980      2.31338        -0.298273      0.158094      0.660111
O      14.99127      9.35095     14.68915         0.834747     -0.691100      0.032586
O       3.76713      9.19049      6.30122         0.353980     -0.339760      0.988874
O       0.04725      9.55762      6.47250        -0.323879     -0.053557      0.021262
O       3.69706      9.29517     10.58833         0.445234     -0.189354      0.203873
O       0.00195      9.42381     10.56335        -0.272106      0.235874      0.058440
O       7.49100      2.16768      2.44474         0.383880     -0.592127      0.025193
O       7.42770      1.62322     14.61393         0.950590      0.391738      0.176348
O       7.53519     13.06383      2.30766        -1.099836     -0.273250      0.594396
O       7.49330     13.31885     14.64671        -0.455524     -0.107600      0.380662
O       7.50921      2.05634      6.52263         0.430278      0.009889     -0.086706
O       7.47348     12.99020      6.49645         0.764602     -0.101249     -0.104316
O       7.52045      2.07768     10.62340         0.219483     -0.708346      0.023186
O       7.50787     13.03969     10.51464        -0.733536      0.219275      0.276931
O       7.44391      5.45988      2.37951         0.131726     -0.303450      0.172996
O       7.46359      5.78382     14.67316        -0.096467     -0.248755      0.151843
O       7.46329      5.48404      6.50339         0.557419     -0.290788      0.024411
O       7.54258      5.60563     10.41671        -0.725900     -0.095759      0.410052
O       7.54396      9.35140      2.40908         0.578556      0.817248      0.097845
O       7.55305      9.14513     14.53410        -0.894503     -0.008560      0.478095
O       7.46813      9.53865      6.61739         0.361257     -0.255299     -0.667541
O       7.45747      9.56701     10.68728        -0.425376     -0.903791     -0.395247
O      11.25659      1.83176      2.38319        -0.642225     -0.065054     -0.045185
O      11.21020      1.96796     14.65146         0.781108      0.639051      0.486179
O      11.25524     13.22508      2.33379        -0.394584      0.043966      0.167180
O      11.20108     13.13056     14.70378         1.020906     -0.817587      0.080928
O      11.23711      1.61278      6.43532        -0.214378      0.570942      0.035547
O      11.25800     13.22659      6.43861        -0.134298     -0.040049      0.160852
O      11.27589      1.79711     10.68708         0.070436     -0.291670      0.147160
O      11.21061     13.20485     10.52607         0.806897     -0.283045      0.424498
O      11.17000      5.79708      2.21262         2.248685      0.073621      0.810367
O      11.28541      5.49487     14.67007        -1.352898     -0.710254      0.327906
O      11.18671      5.82809      6.40098         0.624345     -0.084068      0.196049
O      11.19520      5.70726     10.65427         0.530538      0.174044      0.025174
O      11.24676      9.23618      2.42803        -1.012323     -0.056548     -0.186086
O      11.28716      9.55026     14.71581        -1.118154     -0.246167      0.152330
O      11.28496      9.26121      6.43789        -0.948448     -0.085932      0.538239
O      11.20430      9.34838     10.57916        -0.348229      0.114436      0.057091
O       1.84345      3.72667      2.31985         0.794329      0.640414      0.630731
O       1.68905      3.73351     14.68459        -0.235591     -0.594466      0.138691
O       1.72741      0.01463      2.52900         0.194633     -1.378482     -0.294986
O       1.95578      0.00967     14.81615         0.412465     -1.034900     -0.215165
O      13.03856      3.74942      2.32115        -0.657472      0.413167      0.350644
O      13.36122      3.75795     14.63231        -0.069361     -0.014557      0.142980
O      13.11165      0.01295      2.25131         0.496469     -0.127248      0.313593
O      12.90305      0.00702     14.53077         0.477284     -0.202212      0.579626
O       1.95025      3.65720      6.46433        -0.321630      1.608162      0.020910
O       1.76367     14.97446      6.46469        -0.773024      0.869985      0.373454
O      13.01289      3.74736      6.52363        -0.762936     -0.837732     -0.489676
O      13.26737     14.98407      6.43037         0.167795      0.573863      0.398651
O       1.87732      3.72090     10.56585         0.240017      0.609608      0.384142
O       1.78059      0.04453     10.62133         0.215741     -1.118763      0.017037
O      12.92737      3.76973     10.59429         0.425688     -0.528621      0.081188
O      13.16188     14.91613     10.68402         0.091141      0.787895     -0.330231
O       1.68174      7.52583      2.34615        -0.255219      0.600321      0.270905
O       1.97984      7.49927     14.52337         0.252323      0.464915      0.577730
O      13.29958      7.55016      2.38272        -0.228177     -0.954322      0.174005
O      13.00760      7.44448     14.72366        -0.025410      0.705819      0.337816
O       1.66801      7.50561      6.33401         0.138733     -0.441925      0.523273
O      13.27254      7.51399      6.37716        -0.007530     -0.716366      0.761046
O       1.86542      7.44084     10.55783        -0.339984      0.998324      0.262912
O      13.18581      7.52691     10.37622        -0.161448     -0.201925      0.316780
O       1.97750     11.28500      2.51260        -0.122773     -0.684967     -0.401453
O       1.70096     11.22404     14.70269         0.354013      0.536309     -0.166051
O      12.91303     11.26665      2.35706         0.284573      0.201192      0.416090
O      13.24830     11.23998     14.73643        -0.205743      0.601312     -0.266229
O       2.13496     11.25545      6.43756        -0.230876      0.658011      0.412141
O      13.08779     11.26172      6.33010        -0.561170      0.575949      0.487642
O       2.00759     11.28793     10.50690        -0.121406     -1.323468      0.472497
O      12.99470     11.23978     10.67752         0.316528      0.147851      0.145153
O       5.38295      3.69668      2.31100        -0.008447      2.124910      0.914363
O       5.74697      3.72584     14.63157         0.012583      0.286066     -0.133565
O       5.65093     15.00292      2.36028         0.675816     -1.241984      0.257304
O       5.47481     14.97286     14.73903        -0.504197     -0.464046     -0.015498
O       5.50180      3.71940      6.47755        -0.187383     -0.113034      0.024012
O       5.74469      0.00809      6.57705         0.357734      0.407807     -0.231591
O       5.61376      3.73381     10.70930        -0.357947      1.433644     -0.128741
O       5.66257      0.03625     10.45638         0.433167     -0.069026      0.386523
O       5.79810      7.44892      2.30731        -0.454330     -0.207596      0.134597
O       5.55996      7.50240     14.76088        -0.364278     -0.472886     -0.307875
O       5.75430      7.43635      6.46682         0.018673      0.631600      0.363208
O       5.72782      7.52460     10.43092        -0.092352     -0.591117      0.444414
O       5.61924     11.14337      2.48557         0.455709      1.475859     -0.454026
O       5.97748     11.25089     14.58425        -0.784031     -0.020210     -0.048384
O       5.47156     11.26380      6.44150        -0.134432     -0.454806     -0.054454
O       5.43825     11.27985     10.70867         0.294905     -0.628408     -0.373756
O       9.58850      3.76065      2.58882        -0.345562     -0.148459     -0.446376
O       9.17294      3.66961     14.76964         0.086647      0.802412     -0.193964
O       9.30178     14.99606      2.40224        -0.321311      0.752943     -0.324885
O       9.45298     15.00505     14.74865         0.173284     -0.017654      0.282857
O       9.61032      3.68306      6.50009        -0.218317      0.692810     -0.173952
O       9.21961     14.97232      6.48084        -0.124092      0.258704      0.027772
O       9.53075      3.75439     10.65508        -0.229975      0.376017     -0.627261
O       9.29520     15.00926     10.68621        -0.097072     -0.123586     -0.313227
O       9.30421      7.47994      2.39237        -0.323811     -0.287557      0.164329
O       9.56090      7.44118     14.60806         0.204045      0.271752      0.446241
O       9.18681      7.49092      6.34261        -0.151589     -0.199874      0.602322
O       9.43451      7.53967     10.59516        -1.155481     -1.180167     -0.140723
O       9.51605     11.22094      2.21682        -0.224284     -0.913280      0.531439
O       9.24312     11.24913     14.68043        -0.088756     -0.314972      0.221399
O       9.50722     11.23808      6.47950        -0.176604      0.012288      0.300897
O       9.39070     11.26425     10.53311         0.478430     -0.321039      0.436443
