  # total energy = -7881.83622071 
CRSYTAL
PRIMVEC
    15.3600000000000000    0.0000000000000000    0.0000000000000000
     0.0000000000000000   15.3600000000000000    0.0000000000000000
     0.0000000000000000    0.0000000000000000    17.440000000000000
PRESSURE
1.57138 1.25754 1.58839 -0.17248 -0.276206 0.024224
PRIMCOORD
320 1
Pb       3.89238      3.82629      4.38921        -0.549465     -0.022227      0.216726
Pb       3.92387      3.81921     17.43054        -0.271939     -0.015829     -0.043764
Pb       3.78726      0.02268      4.31407        -0.008354     -0.112596      0.048300
Pb       3.69555     15.32330     17.35529         0.225109      0.257942     -0.040547
Pb       0.05877      3.73689      4.35736        -0.216820      0.165422      0.078905
Pb       0.08697      3.96283     17.42548        -0.663446     -0.401510     -0.069120
Pb       0.09810      0.02596      4.32778        -0.552644     -0.060766     -0.067719
Pb      15.23801     15.34072     17.37791         0.306912      0.261060     -0.122003
Pb       3.75066      3.74027      8.73486        -0.181168      0.442780     -0.180367
Pb       3.85960      0.00752      8.57456        -0.473078     -0.408461      0.437636
Pb      15.14109      3.96758      8.62862         0.677419     -0.688912     -0.017830
Pb      15.18908     15.33400      8.70942         0.661056      0.419590     -0.319176
Pb       3.76781      3.66576     13.10664         0.430787      0.358067     -0.462237
Pb       3.72062      0.00189     12.93654         0.559642     -0.842092      0.189880
Pb       0.04255      3.78867     13.05561        -0.179219      0.148116     -0.359056
Pb      15.33065     15.28196     13.07437         0.000386     -0.161199     -0.228568
Pb       3.86262      7.65980      4.33134        -0.640153      0.154173     -0.285983
Pb       3.81700      7.56927     17.39190        -0.395914      0.937999      0.349191
Pb       0.13476      7.84499      4.34719        -0.312954     -0.982023     -0.329757
Pb      15.19141      7.68955     17.43549         0.411432      0.170375     -0.465538
Pb       3.82800      7.73810      8.62325         0.086665     -0.774650      0.606481
Pb       0.03099      7.59925      8.62367        -0.678379      0.297784      0.369445
Pb       3.83312      7.55417     12.98934         0.019686      0.201911      0.150223
Pb      15.34467      7.62952     13.12477         0.080546      0.309979     -0.768648
Pb       3.81462     11.59732      4.23030        -0.231093     -0.494966     -0.075134
Pb       3.98178     11.62658     17.39819        -0.219976     -0.783625      0.178001
Pb       0.06689     11.54917      4.37242        -0.326768      0.360526     -0.587310
Pb      15.28102     11.57083     17.29635        -0.159089     -0.342905     -0.011838
Pb       3.88412     11.53157      8.61241        -0.167189     -0.133169      0.276172
Pb      15.27958     11.44109      8.70328         0.461875     -0.269352      0.169912
Pb       3.91860     11.44248     13.14136        -0.120116      0.195794     -0.504379
Pb       0.18219     11.58570     13.04713        -0.441696     -0.832757     -0.070432
Pb       7.72738      3.75871      4.33880        -0.551919     -0.033011     -0.685830
Pb       7.68159      3.87474     17.43500        -0.014099      0.010247     -0.556271
Pb       7.70504      0.01304      4.39886        -0.146271     -0.070269     -0.478566
Pb       7.55277      0.08316     17.29992         0.219685     -0.221193      0.214890
Pb       7.59365      3.84237      8.77807        -0.084877      0.166970     -0.456279
Pb       7.65962     15.24917      8.75367        -0.010442     -0.119745     -0.673337
Pb       7.88220      3.92356     13.04702        -0.708039     -0.478593      1.196542
Pb       7.68419      0.13160     13.02524        -0.702477     -0.481778     -0.281802
Pb       7.74224      7.51598      4.32929        -0.628543      0.916392     -0.423903
Pb       7.59532      7.79580     17.40243         0.297224     -0.871008      0.125788
Pb       7.71357      7.67212      8.66338        -0.657871      0.111805      0.558280
Pb       7.61060      7.72991     13.03685         0.408864     -0.442571     -0.048061
Pb       7.64259     11.52764      4.31941        -0.016890     -0.666026      0.192617
Pb       7.74616     11.52658     17.39148        -0.690350      0.528611      0.078970
Pb       7.53014     11.60243      8.55119         0.155419     -0.765790      0.694699
Pb       7.78220     11.48059     13.00016        -0.740620      0.534480     -0.519790
Pb      11.43644      3.78691      4.30895         0.614179      0.137293     -0.690896
Pb      11.74143      3.90167      0.07686        -0.019311     -0.033221      0.013504
Pb      11.55201     15.24817      4.33980         0.080241      0.356775      0.157028
Pb      11.29714     15.26520      0.02886         0.141111      0.113517     -0.315241
Pb      11.39115      3.87510      8.69244         0.420257      0.128159     -0.357997
Pb      11.52268      0.00907      8.74928        -0.325690     -0.276495     -0.473765
Pb      11.61408      3.71560     13.06205        -0.922036      0.314491      0.025891
Pb      11.55900     15.33133     13.03391        -0.005701     -0.073614     -0.667563
Pb      11.52574      7.59415      4.35402        -0.001697      0.673308     -0.949245
Pb      11.53395      7.67668     17.39054        -0.251520      0.119146      0.133726
Pb      11.53026      7.71335      8.71093         0.362612      0.137467     -0.268020
Pb      11.35872      7.63720     13.11745         0.199253     -0.131169     -0.557392
Pb      11.59517     11.43898      4.25951        -0.592221     -0.475266      0.599081
Pb      11.40291     11.40257     17.35717         0.297779      0.119022     -0.379494
Pb      11.62571     11.45708      8.57691        -0.774810     -0.380708      0.028520
Pb      11.55090     11.46411     13.03092         0.175651      0.016437     -0.328203
Ti       1.95457      1.97318      2.30000        -1.145308     -0.560130     -0.247935
Ti       1.86880      1.85095     15.41062        -0.225474      0.250811     -0.193048
Ti       1.83368     13.42636      2.26107         0.015991     -0.297414     -0.081872
Ti       1.88695     13.34463     15.47353        -0.407730      0.956145      0.325894
Ti      13.37394      1.89133      2.42444         1.162780      0.593545      0.990912
Ti      13.44030      1.93389     15.33788        -0.262182      0.394628      0.274084
Ti      13.33017     13.43003      2.18687         1.336959      0.230167      2.149509
Ti      13.29270     13.53642     15.40994         0.230960     -1.671282     -0.500232
Ti       1.84990      1.86077      6.84729        -0.300674      0.377394     -0.330967
Ti       1.83889     13.36656      6.70402         0.559945      0.922239      0.559326
Ti      13.30821      1.89362      6.67152         1.348200     -0.030052     -1.260611
Ti      13.43161     13.37376      6.67262        -0.582824      0.831097     -0.400111
Ti       1.89388      1.77782     10.99510        -0.838776      0.173333     -0.881706
Ti       1.82470     13.30198     10.89485         1.139905     -0.230488      0.244086
Ti      13.47714      1.85529     11.03773        -0.501008     -0.183196      0.244432
Ti      13.42895     13.37813     10.93733        -0.786582      0.130419      1.715571
Ti       1.94990      5.72299      2.31274        -1.273660      1.120421      2.500574
Ti       1.92860      5.68350     15.32832        -0.697180      1.671333     -0.177703
Ti      13.56442      5.74402      2.43667        -1.450999      0.370498      0.211420
Ti      13.45028      5.79080     15.29490         0.068867     -0.152996      1.963636
Ti       1.89807      5.72247      6.74863         0.013227     -0.624729     -1.110690
Ti      13.35979      5.71429      6.52429         0.494018      0.380549      0.677766
Ti       1.89915      5.62281     11.02957        -0.160729      1.248291      0.575361
Ti      13.34328      5.63612     11.07416         0.183935      1.712158      0.651037
Ti       1.79132      9.64657      2.21338         1.303796     -0.813691      1.547878
Ti       1.86902      9.57697     15.52337         0.150528     -0.225064     -0.932868
Ti      13.38692      9.64393      2.28516        -0.392346     -1.558580      0.146286
Ti      13.37671      9.62895     15.34728        -0.186665      0.023765     -0.563387
Ti       1.88401      9.58165      6.68543        -0.194216     -0.587887     -0.747161
Ti      13.43057      9.54152      6.60229        -1.215052     -0.714087      0.224682
Ti       1.99297      9.46280     11.03659        -1.142839      0.329967     -0.231414
Ti      13.40597      9.45769     11.15579         0.136002     -0.172472     -0.537577
Ti       5.67687      1.85926      2.27135         0.942206      0.332981     -0.483918
Ti       5.66032      1.97094     15.41172         0.759913     -0.671601      1.706364
Ti       5.78442     13.45983      2.38101        -0.511947     -0.162974      0.792673
Ti       5.73044     13.49746     15.34578        -0.084199     -0.296090     -0.269251
Ti       5.76148      1.87410      6.68170        -0.577517     -0.479776      1.303330
Ti       5.63674     13.41974      6.56469        -0.083532     -1.196068      0.717232
Ti       5.68122      1.89910     10.86009         0.029742     -0.208506      1.478388
Ti       5.65927     13.38804     10.99072         0.058839     -0.282222      2.955537
Ti       5.67323      5.70946      2.36706         0.246775      0.497739     -1.181577
Ti       5.69642      5.78500     15.46990         1.720471     -0.129396     -0.786411
Ti       5.71057      5.60425      6.68614        -0.532013      1.294946      1.114243
Ti       5.75438      5.65809     11.05791        -0.394544      0.621910     -0.525675
Ti       5.61328      9.61940      2.32963         0.469584     -1.051319      0.396707
Ti       5.73422      9.59772     15.41451        -1.269542      0.239018      0.282096
Ti       5.64120      9.45067      6.64495         1.174420      0.805231     -0.297965
Ti       5.75222      9.57595     11.05845         0.338438      0.818835      0.771680
Ti       9.53828      1.85247      2.27935        -0.060794      0.050481     -0.920666
Ti       9.68055      1.92358     15.50574        -0.856128      0.533331      0.003353
Ti       9.57336     13.37573      2.38389        -0.516745      0.312212     -0.455001
Ti       9.54446     13.43895     15.20806        -0.118497      0.147585      0.550961
Ti       9.57015      1.86447      6.66916        -0.424209     -0.489396      0.977094
Ti       9.50950     13.38533      6.69475         0.566941      0.207328      1.411976
Ti       9.53915      1.88927     10.91957         0.852068      0.375198      1.864794
Ti       9.54710     13.49458     10.98818        -0.538610     -0.861240      1.345907
Ti       9.55016      5.70161      2.26272         1.131108      0.756242      0.843609
Ti       9.66780      5.70723     15.53172        -1.415066      0.367534     -0.319905
Ti       9.48893      5.71524      6.57670         0.908688      0.092205      0.352594
Ti       9.56781      5.66537     10.96582        -0.008430      1.028767      3.245221
Ti       9.47104      9.53854      2.28711         0.490900     -0.308111      0.532548
Ti       9.47937      9.61384     15.39101         1.735656     -1.263614     -0.149955
Ti       9.46725      9.55829      6.77418         0.683344      0.405300     -1.189150
Ti       9.59885      9.61954     11.05809        -0.322986     -0.477969      0.014896
O       1.79244      1.99276      0.52716         0.449082     -0.120793      0.343828
O       1.94099      1.80110     13.62434        -0.112108      0.425674     -0.303995
O       1.79030     13.39116      0.50189        -0.129342      0.286059     -0.647400
O       1.75977     13.36850     13.75002         0.127558     -0.091272     -1.507565
O      13.42624      2.06138      0.72945         0.276621     -0.391111     -2.094718
O      13.53291      1.98061     13.55230        -0.348605     -0.544152      0.352249
O      13.37801     13.47108      0.44710        -0.144646      0.020684     -0.175139
O      13.29200     13.65246     13.63748        -0.118042     -0.684207     -0.173932
O       1.86464      1.84156      5.08031         0.230370     -0.097544     -0.966399
O       1.80233     13.46003      4.93064         0.194291     -0.363712     -0.273598
O      13.33179      1.90881      4.82903        -0.118272     -0.041622      1.569044
O      13.50700     13.40520      4.91351        -0.406115     -0.119684      0.726527
O       1.82213      1.82849      9.22456         0.273319      0.214354      0.519280
O       1.89025     13.22994      9.15625        -0.324796      0.297104     -0.305158
O      13.49013      1.90588      9.29935        -0.130456     -0.146791     -0.906170
O      13.50565     13.37832      9.19741        -0.336253     -0.064932     -1.046921
O       1.89102      5.62651      0.63312        -0.094756     -0.039453     -2.918443
O       1.96474      5.84636     13.55823        -0.136962     -0.564632      0.265432
O      13.45635      5.69482      0.64342         0.514071      0.268819     -0.536512
O      13.37773      5.68415     13.60343        -0.054529      0.000740     -1.295790
O       1.94161      5.77558      4.96927        -0.024352     -0.222208      0.595832
O      13.46433      5.59213      4.78710        -0.715428      0.492506      0.016651
O       1.89085      5.63193      9.28902        -0.381886      0.148099     -0.770892
O      13.38951      5.75675      9.32727        -0.159500     -0.302689     -0.567875
O       1.81323      9.62907      0.52667        -0.115144      0.114858     -2.236526
O       1.70800      9.62193     13.73281         0.347430      0.089829     -0.265545
O      13.26810      9.52307      0.50100         0.504139      0.286080      0.455638
O      13.25489      9.45496     13.56796         0.326006      0.699741     -0.140991
O       1.85986      9.50716      4.88879         0.111699      0.434968      0.811328
O      13.25626      9.63058      4.87930         0.578273      0.085745     -0.574894
O       1.95619      9.45036      9.25708         0.018499      0.150827      0.172883
O      13.39551      9.40014      9.35840        -0.271953      0.424052     -0.852016
O       5.63944      1.85419      0.47433        -0.143439      0.264653      0.431244
O       5.59803      1.98770     13.72852        -0.256659     -0.282875     -2.168434
O       5.94271     13.33328      0.67763        -0.481255      0.131128     -1.366503
O       5.63168     13.55232     13.61496         0.212507     -0.287162      0.151620
O       5.67160      1.83915      4.97797         0.208960     -0.102997     -1.421021
O       5.65826     13.36093      4.81461         0.138362      0.357383     -0.654095
O       5.66263      1.89136      9.11804         0.527570     -0.024152     -0.447636
O       5.67000     13.44512      9.28821         0.102716     -0.380289     -1.777110
O       5.60515      5.74015      0.55774         0.056245     -0.365772      0.231352
O       5.68662      5.81598     13.69283        -0.208376     -0.087572      0.224664
O       5.60705      5.61873      4.95831         0.455238      0.335908     -1.132033
O       5.85476      5.72176      9.29197         0.088730     -0.223422     -0.216775
O       5.74593      9.72987      0.59633        -0.059753     -0.274967     -0.929188
O       5.70922      9.49412     13.67135         0.248515      0.315895     -0.064471
O       5.66601      9.29024      4.89923         0.076998      0.677795     -0.139291
O       5.77188      9.76342      9.34469        -0.527267     -0.497653     -1.242033
O       9.44699      1.80105      0.47327         0.466905      0.208714      1.048269
O       9.68038      2.05584     13.75422        -0.208838     -0.704530     -0.362809
O       9.61928     13.38211      0.62649        -0.167175     -0.104027      0.464612
O       9.50583     13.47716     13.41136         0.317543      0.338207      1.203552
O       9.63665      1.74404      4.92558        -0.240624      0.358701     -0.686776
O       9.50110     13.48018      4.98802        -0.180073     -0.135808     -1.879805
O       9.63550      1.86495      9.20377        -0.637550      0.274429     -0.626919
O       9.37463     13.53570      9.25333         0.315100     -0.113403     -0.833572
O       9.63351      5.79390      0.54194        -0.443428     -0.386043     -0.963995
O       9.56380      5.66623     13.77414         0.263013      0.001846     -0.188806
O       9.49241      5.70930      4.75183         0.050544     -0.097884      1.415999
O       9.50558      5.54320      9.28918         0.060255     -0.048043     -2.714127
O       9.66236      9.62185      0.50604        -0.610830     -0.005442      0.416243
O       9.59016      9.46369     13.62070        -0.370429      0.512888      0.007956
O       9.53190      9.55813      5.01663        -0.442647     -0.158369     -0.207858
O       9.67779      9.57045      9.33917        -0.200641      0.045354     -1.441650
O       3.88053      1.87095      2.78727        -1.526017     -0.192063     -0.139102
O       3.68306      1.92876     15.83942         1.000976      0.076440      0.229138
O       3.81682     13.36217      2.60748        -0.131512      0.183458      0.255945
O       3.78237     13.45086     15.73213         0.601615     -0.095038      0.633597
O       0.03343      1.91396      2.77936         0.720707     -0.243205      0.059964
O      15.29205      1.79751     15.79165        -0.226836      0.318100      0.045214
O      15.23434     13.36055      2.78792         0.494132      0.296151     -0.788461
O      15.21862     13.40976     15.69944         0.326601      0.183821      0.725871
O       3.79337      1.86827      7.09017         0.956654      0.225293      0.261758
O       3.73764     13.42756      7.07171         0.466979     -0.387164     -0.197232
O      15.28796      1.91428      7.04732        -0.655907     -0.109904      0.297262
O      15.34255     13.45512      7.05868        -0.384684     -0.279889      0.251892
O       3.77858      1.91709     11.28044         0.045350     -0.327443      0.660735
O       3.69279     13.27335     11.40905         0.555300      0.267967      0.139692
O      15.35897      1.83811     11.36040         0.654155      0.503925      0.673559
O      15.28567     13.35747     11.30871         0.702054     -0.112311      0.433878
O       3.72896      5.70564      2.72281         1.614710     -0.310341      0.411925
O       3.76513      5.82196     15.84558         0.499434     -0.349765     -0.078430
O       0.00795      5.77184      2.77721         0.837549     -0.185287     -0.042038
O      15.34711      5.73561     15.69531         0.052809      0.248972      0.270700
O       3.81709      5.62839      7.11705         0.746015      0.532409      0.200306
O      15.29062      5.72731      6.97180         0.240576     -0.256960      0.546993
O       3.78321      5.84032     11.26990         0.656882     -0.075829      0.664637
O      15.23968      5.73412     11.45286         0.625360     -0.437224      0.192094
O       3.73908      9.68590      2.66968         0.026362     -0.448937      0.229701
O       3.81125      9.57062     15.84956         0.325763      0.316216      0.016656
O      15.32702      9.52693      2.67774        -0.929094      0.792983      0.082537
O      15.27942      9.65311     15.83166         0.120512      0.321923      0.293884
O       3.79030      9.54700      7.02189        -0.103050     -0.118986      0.370654
O      15.28147      9.51121      6.93051         1.384872      0.045032      0.616689
O       3.84961      9.66565     11.54938        -0.868423     -0.954258     -0.391826
O      15.23009      9.46186     11.31502         1.699816      0.234718      0.856150
O       7.56809      1.86692      2.64839         1.545372      0.059240      0.543914
O       7.60230      1.88008     15.77810         0.041526     -0.097687      0.004225
O       7.66633     13.42094      2.80523         0.568062     -0.000257      0.399922
O       7.68252     13.43062     15.72912        -0.371728      0.194071     -0.165253
O       7.66170      1.87708      7.03146        -0.029403     -0.319794      0.075422
O       7.52234     13.41041      7.06681         0.805350      0.208618     -0.231462
O       7.46729      2.13605     11.41426         1.612089     -1.131065     -0.463198
O       7.54212     13.37924     11.44076         0.706225      0.170275     -0.052249
O       7.60144      5.70070      2.61170        -0.019241     -0.188354      0.501149
O       7.63542      5.70766     15.80975        -0.562378      0.203563      0.610295
O       7.69054      5.82176      7.12920        -0.458979     -0.938048     -0.517793
O       7.65522      5.53112     11.45634        -0.190622      0.620605     -0.191770
O       7.51071      9.29775      2.70752         1.451221      1.246412     -0.066288
O       7.64356      9.67031     15.85210        -0.060057     -0.609406     -0.111406
O       7.55774      9.61268      7.15697         0.415389     -0.116362     -0.125342
O       7.67146      9.67012     11.40020         0.313307     -0.025903      0.613407
O      11.54434      1.87929      2.70251        -2.027405      0.434521      0.162021
O      11.55870      2.01881     15.87748        -0.246835     -0.481024     -0.145046
O      11.46148     13.38837      2.76606         0.672055      0.038129     -0.293218
O      11.37021     13.42463     15.86502         0.192980     -0.207780     -0.440760
O      11.45898      1.93107      7.18708         0.101623     -0.224483     -0.257627
O      11.43960     13.42820      7.03937         1.118470     -0.416470      0.246166
O      11.52006      1.72677     11.23906        -0.809485      0.243702      0.579012
O      11.40686     13.65422     11.31014         0.990567     -0.166405     -0.086109
O      11.46831      5.70252      2.58702        -0.157266     -0.041864      0.920371
O      11.57077      5.76997     15.88413         0.190847     -0.102296     -0.334395
O      11.48182      5.75413      7.13608        -0.665711     -0.190618     -0.768878
O      11.40579      5.64897     11.52576         0.620469      0.039518     -0.382412
O      11.47044      9.57153      2.77983        -0.580401      0.020682     -0.270370
O      11.45907      9.47289     15.73883        -0.512519      0.633690      0.305450
O      11.47218      9.51603      6.98549         0.550027      0.350592      0.988539
O      11.44037      9.48444     11.38251        -0.317719      0.494871      0.957425
O       2.00060      3.78805      2.78369        -0.507348     -0.188531     -0.081833
O       1.91484      3.88279     15.68127        -0.331374     -1.021092      0.150364
O       1.94179     15.28290      2.58768        -0.173795      1.023299      0.563495
O       1.85162      0.01038     15.74679        -0.010593     -0.746617      0.796942
O      13.52031      3.88692      2.76145        -0.521517     -0.916450      0.287792
O      13.47061      3.83511     15.77195        -0.036797      0.023741     -0.031802
O      13.42006     15.35559      2.81676        -0.096262     -1.296466     -0.784983
O      13.19119     15.32527     15.71893         0.705870      1.843090      0.680109
O       1.96655      3.81912      7.21422        -0.744547     -0.062952     -0.245275
O       1.94460     15.33854      7.17798        -0.627112     -0.930965     -0.175025
O      13.39136      3.79675      7.03441        -0.363460      0.347144      0.107431
O      13.39580     15.35838      7.13172        -0.231518     -0.318741     -0.158534
O       1.92293      3.81189     11.55636        -0.205725     -1.043594     -0.289559
O       1.90035     15.21142     11.39874        -0.305021      0.907082     -0.148028
O      13.33900      3.74950     11.48590         0.531692     -0.016313     -0.288746
O      13.57202     15.27977     11.47842        -0.660745      0.462756     -0.316856
O       1.84289      7.68457      2.64245         0.404513     -0.078972      0.107850
O       1.82365      7.73059     15.79195         0.080172     -1.211666      0.455606
O      13.37678      7.75129      2.87212         0.215576     -0.727724     -0.465280
O      13.48003      7.76557     15.75193        -0.040274     -1.946334      0.220898
O       1.96980      7.63988      7.14810        -0.367146     -0.003492     -0.081785
O      13.48008      7.60672      6.97510        -0.617786      0.075275     -0.021094
O       1.87629      7.59593     11.43877        -0.126725      0.607138      0.153209
O      13.24622      7.60733     11.53162         0.245561     -0.845019      0.058476
O       1.88261     11.53313      2.66426        -0.519307      0.159453      0.540531
O       1.99007     11.54069     15.81949        -0.786409     -0.532856      0.467217
O      13.38425     11.48394      2.66479        -0.032108      0.947286     -0.146684
O      13.29546     11.48662     15.71124        -0.094864      0.699957      0.231673
O       1.92651     11.41711      7.12537        -0.619216      0.589771     -0.434975
O      13.55547     11.47087      7.02395        -0.792620      0.205718      0.334626
O       1.82802     11.39516     11.34042        -0.442952      0.254895      0.536970
O      13.30443     11.54572     11.42456        -0.277670     -0.177280      0.025482
O       5.69817      3.75335      2.82390         0.027880      0.432198     -0.276906
O       5.72247      3.82156     15.80812        -0.677554      0.774933      0.417331
O       5.76747      0.00238      2.73686        -0.292218     -0.530393      0.166731
O       5.56038     15.34709     15.82321         0.650028      0.017836      0.064664
O       5.78078      3.77778      6.99954         0.216644     -0.110587      0.498572
O       5.66215     15.21048      7.02529         0.269882      1.831660      0.041459
O       5.56640      3.83682     11.30381        -0.327920     -0.680687      0.228049
O       5.68469     15.28071     11.40659        -0.071174      1.482374     -0.183635
O       5.56915      7.56462      2.70139         0.038108      0.103951      0.019809
O       5.71568      7.71599     15.90366         0.262551     -0.454278     -0.007003
O       5.75872      7.63835      7.13438        -0.296890     -0.706772      0.065786
O       5.86197      7.73389     11.52067        -0.586140     -1.289433     -0.479483
O       5.74161     11.44711      2.76634         0.398613      0.819233      0.439584
O       5.78120     11.50527     15.84636        -0.321154      0.738100     -0.328955
O       5.65645     11.47088      6.96034        -0.023042      0.197692      0.149635
O       5.70173     11.46421     11.62533         0.196687      0.546903     -0.220923
O       9.53637      3.76420      2.73569        -0.076620     -0.369864     -0.135218
O       9.53433      3.81945     15.89644         0.197252     -0.131107      0.407462
O       9.65709     15.35097      2.68082        -0.434938     -0.336145      0.330966
O       9.56972     15.29306     15.84538         0.138431      0.577591     -0.490876
O       9.54080      3.80103      6.96538         0.028662      0.567597      0.067897
O       9.58478     15.29562      7.13418        -0.350806      0.614564      0.082183
O       9.62136      3.78146     11.52990         0.158662     -1.191405     -0.667995
O       9.38556      0.04711     11.41068        -0.281745      0.750470     -0.117694
O       9.50227      7.65985      2.70986         0.514137     -0.283273      0.044662
O       9.53076      7.64843     15.87961        -0.155159      0.475419     -0.083540
O       9.49064      7.66642      7.12618         0.406025     -0.933448     -0.192024
O       9.42393      7.54553     11.39166         0.343809      0.700278      0.053840
O       9.53646     11.42100      2.78742        -0.476917      0.430237     -0.187822
O       9.55783     11.52050     15.67657         0.116340     -0.034241      0.056834
O       9.56504     11.48500      7.12326        -0.171600      0.308430      0.158748
O       9.62811     11.60174     11.45167         0.110096     -0.866882     -0.072081
