  # total energy = -7882.80286668 
CRSYTAL
PRIMVEC
    15.3600000000000000    0.0000000000000000    0.0000000000000000
     0.0000000000000000   15.3600000000000000    0.0000000000000000
     0.0000000000000000    0.0000000000000000    17.440000000000000
PRESSURE
2.24787 2.48015 4.33405 -0.113177 -0.075685 0.040809
PRIMCOORD
320 1
Pb       3.86022      3.75964      4.27737        -0.107198      0.027664      0.728095
Pb       3.73908      3.79556     17.42258         0.396678      0.119631     -0.280784
Pb       3.79497     15.27900      4.30722         0.346636      0.591668      0.535128
Pb       3.72983     15.25819     17.32572         0.549421      0.192728      0.549808
Pb       0.03845      3.76194      4.25000        -0.074417      0.282327      0.242418
Pb      15.33502      3.81870     17.34339        -0.208643     -0.395628      0.460503
Pb       0.00441      0.00259      4.30816         0.307941     -0.074082     -0.140180
Pb       0.06029     15.32990     17.36075        -0.502153      0.121990      0.262787
Pb       3.79558      3.77509      8.72741         0.435391      0.716935      0.016323
Pb       3.83860      0.03230      8.49737         0.109444     -0.549554      1.729202
Pb       0.08385      3.88426      8.71733        -0.925511      0.135664      0.324357
Pb      15.27205     15.31595      8.70254         0.147420      0.143724     -0.000948
Pb       3.81352      3.83971     13.06021         0.037434     -0.535801     -0.641624
Pb       3.83149      0.09830     12.98751         0.235515     -0.162161      0.296046
Pb       0.03309      3.83424     13.02547        -0.089157     -0.329310     -0.001332
Pb      15.31572     15.28539     13.07917         0.036643      0.031551     -0.040624
Pb       3.80700      7.64748      4.34880        -0.216702      0.174232      0.088982
Pb       3.86961      7.60303     17.32166        -0.434167      0.504529      0.483782
Pb      15.29293      7.75747      4.29613         0.490772     -0.612616     -0.141430
Pb      15.29632      7.54850     17.43047         0.378327      0.364731     -0.163484
Pb       3.72867      7.73655      8.61301         0.676518     -0.230374      0.000798
Pb      15.35686      7.70806      8.63101        -0.068975     -0.331151      0.474547
Pb       3.85963      7.62968     12.95030         0.032087      0.225715      0.442521
Pb      15.28396      7.59732     13.03151        -0.193126      0.222578      0.428057
Pb       3.92783     11.51365      4.35654        -0.981245     -0.334575     -0.077557
Pb       3.71374     11.63391     17.37617         0.351546     -0.827248      0.365525
Pb      15.23220     11.42751      4.41285         0.418748      0.673988     -0.677999
Pb      15.32395     11.53861     17.38291        -0.093160     -0.474987     -0.243698
Pb       3.90717     11.46758      8.64295        -0.551900     -0.028583      0.288519
Pb      15.30112     11.55970      8.70793         0.061912      0.123943     -0.407472
Pb       3.79966     11.46194     13.03423         0.016933      0.451907     -0.373419
Pb       0.02803     11.51802     12.96856        -0.160069      0.304175      0.554111
Pb       7.65753      3.80538      4.26367        -0.175925     -0.341572      0.075552
Pb       7.55813      3.76141      0.05233         0.362623      0.156456     -0.236661
Pb       7.66549     15.23231      4.39718        -0.215241      0.421461     -0.376642
Pb       7.74388     15.34793     17.42270        -0.489439      0.008900     -0.179029
Pb       7.66132      3.87643      8.60474        -0.118604     -0.177285      0.088112
Pb       7.64243      0.06308      8.71219        -0.035082      0.003037     -0.071174
Pb       7.72025      3.86122     12.93076        -0.117115     -0.719941      0.759648
Pb       7.60102      0.00984     13.01175         0.263280      0.655665     -0.018882
Pb       7.75635      7.67308      4.36125        -0.516338     -0.070127     -0.064756
Pb       7.56777      7.75468     17.36526         0.167591     -0.637321      0.206979
Pb       7.76951      7.56426      8.67883        -0.710724      0.429338      0.420042
Pb       7.73071      7.72888     13.04727        -0.353392     -0.180726      0.150942
Pb       7.65277     11.50728      4.32545         0.347220     -0.202951      0.381570
Pb       7.66213     11.43254     17.38611        -0.143178      0.164557      0.136878
Pb       7.62923     11.59448      8.63353         0.438847     -0.319936      0.765092
Pb       7.59411     11.45309     12.95230         0.291269      0.237408     -0.018881
Pb      11.43804      3.87458      4.25928         0.657021     -0.459683      0.201038
Pb      11.56021      3.82981     17.41771         0.101316     -0.231958      0.633618
Pb      11.55572     15.25240      4.41864        -0.098765      0.752832     -0.430371
Pb      11.43910     15.32997      0.09815         0.313611      0.108455     -0.730303
Pb      11.43303      3.75216      8.64865         0.652841      0.999401     -0.109889
Pb      11.50534      0.09066      8.70883         0.106449     -0.327981     -0.150166
Pb      11.55657      3.77718     13.00249        -0.033178      0.152363      0.494013
Pb      11.55731      0.00812     13.03301        -0.261617     -0.168045     -0.199897
Pb      11.48145      7.60125      4.32802        -0.046732      0.435892     -0.277129
Pb      11.51799      7.73179     17.36769        -0.313548     -0.723742      0.364855
Pb      11.53266      7.71268      8.64746        -0.098915     -0.815876      0.443083
Pb      11.50727      7.58981     13.12432         0.090434     -0.034133      0.009803
Pb      11.50889     11.55847      4.21095         0.175074     -0.657674      1.066633
Pb      11.46045     11.46594     17.39824         0.105720      0.182316     -0.204066
Pb      11.57805     11.50413      8.55574        -0.520768      0.170787      0.725979
Pb      11.56350     11.52063     13.07446        -0.450179      0.242712      0.070102
Ti       1.97419      1.88276      2.30687        -0.305030     -0.421485      2.633235
Ti       1.92570      1.89615     15.39994        -0.482471     -0.007007      0.638739
Ti       1.94155     13.40037      2.35907        -0.685444     -0.119140      0.616854
Ti       1.90815     13.38865     15.40887        -1.311185     -0.415942     -1.028831
Ti      13.44143      1.90178      2.39446         0.180412      0.708370     -0.362546
Ti      13.45648      1.83506     15.37190         0.439253      0.439226      0.642267
Ti      13.43753     13.47297      2.31655         0.827318     -0.266759      0.272055
Ti      13.34071     13.47172     15.48790         0.817829     -0.784443      1.379531
Ti       1.89592      1.98145      6.83023        -0.151385     -0.622095     -1.035114
Ti       1.87175     13.48204      6.74323         0.090651     -0.193481      0.561858
Ti      13.46375      1.93607      6.68082        -1.155833     -0.164420     -0.545908
Ti      13.37385     13.45531      6.68593         0.621513      0.093541      0.362134
Ti       1.88611      1.78846     11.01738         0.671326      1.446637      0.973435
Ti       1.93290     13.44147     10.99262        -0.359650      0.232167      0.643809
Ti      13.52872      1.88952     11.02227        -0.702890      0.356869     -0.127655
Ti      13.39749     13.40384     11.00551        -0.222333      0.582052      1.025721
Ti       1.92147      5.73067      2.35201        -0.364058      0.207842      2.737291
Ti       1.99514      5.75283     15.34168        -1.290382     -0.354978      0.939827
Ti      13.43253      5.81000      2.43660         0.250207     -1.051637      0.339104
Ti      13.40763      5.68356     15.47620        -0.117431     -0.547343     -0.289582
Ti       1.86711      5.79403      6.77347         1.416761      0.123253      0.552351
Ti      13.45372      5.72749      6.62209        -0.973598     -0.759492      0.374147
Ti       1.91467      5.78051     11.07148        -0.219303     -1.252785      0.172055
Ti      13.42757      5.74782     11.08572        -0.792349     -0.529496     -1.769070
Ti       1.87579      9.56161      2.31835        -0.140101      0.415013      1.396160
Ti       1.87135      9.55151     15.30379        -0.694832     -0.218104      3.907009
Ti      13.38966      9.65865      2.29639        -0.467564     -0.759123      0.664301
Ti      13.37186      9.55885     15.47089         0.683051      0.676350      0.340682
Ti       1.80771      9.69296      6.61337         1.895641     -1.410779      0.860812
Ti      13.42217      9.53273      6.70382        -0.554964      0.515127      0.599390
Ti       1.86840      9.55307     11.02128         0.291681      0.014226      0.895660
Ti      13.40715      9.59852     11.08345        -0.622545     -0.427002     -0.352034
Ti       5.76361      1.93378      2.27885         0.182358     -1.162010      0.971220
Ti       5.75730      1.86001     15.51813         0.497150     -0.210058     -0.915186
Ti       5.72594     13.39350      2.38880         0.410597      0.853655     -0.428312
Ti       5.81881     13.40031     15.38507        -0.651197      0.784628      0.963940
Ti       5.77783      1.89594      6.66889        -0.124756      0.728984      0.144876
Ti       5.71881     13.38375      6.72057         0.241471      0.863970      1.717464
Ti       5.76144      1.99693     10.94525        -0.104635     -0.706206      1.468425
Ti       5.65477     13.47043     11.04706         0.751746     -0.252598      0.437845
Ti       5.69100      5.77800      2.36300         0.638127      0.105553      1.650798
Ti       5.72661      5.68074     15.32589         0.661195      0.379239      0.746372
Ti       5.70860      5.73623      6.65516        -0.505188      0.102613      1.007308
Ti       5.75629      5.78321     11.05662        -0.219280     -0.319829      0.921579
Ti       5.72142      9.58971      2.38614        -1.100521     -0.187502      0.113335
Ti       5.63304      9.63031     15.41375         0.161818     -0.845223      0.567684
Ti       5.77112      9.56181      6.66052        -0.828956     -0.922709      1.311257
Ti       5.69556      9.52843     11.01547         0.443024      1.228728      0.966544
Ti       9.62297      1.78663      2.29839        -0.059878      0.934878      1.279157
Ti       9.66390      1.97793     15.50351        -0.965065     -0.767822     -0.577656
Ti       9.59199     13.37552      2.37816        -0.459638      0.056490      0.351828
Ti       9.56722     13.39957     15.36011         1.112151      0.106762     -0.381866
Ti       9.58978      1.92975      6.60111        -0.008280      0.349908     -0.799363
Ti       9.57585     13.50772      6.74921        -0.138242     -1.108521     -0.192221
Ti       9.67189      1.87032     10.97804        -1.005495      0.192763      1.772438
Ti       9.49827     13.45962     11.04620         1.536095     -0.243411      0.898571
Ti       9.52302      5.69856      2.31459         0.855374      0.302071     -1.325102
Ti       9.49415      5.72416     15.53591         0.651623     -0.295561      0.645993
Ti       9.53362      5.78687      6.65080         1.469079     -0.308336      2.188515
Ti       9.54721      5.72527     11.12733         1.140183     -0.260652     -0.418542
Ti       9.51987      9.56767      2.28867         0.691084     -0.618249      0.136869
Ti       9.53598      9.53812     15.39397         0.060287      0.275788      0.848758
Ti       9.52269      9.59915      6.80019         0.468386      0.303858     -0.274247
Ti       9.60698      9.57604     11.10229        -0.201777      0.432362      0.442712
O       1.98913      1.70126      0.64911         0.015016      0.415597     -3.386113
O       1.92229      1.90901     13.69603         0.000413     -0.062945     -1.180924
O       1.95990     13.42759      0.60152        -0.028567     -0.288952     -0.713268
O       1.95327     13.38430     13.66463        -0.225100     -0.204061     -0.694223
O      13.62150      1.91776      0.66293        -0.531329     -0.333826     -0.054746
O      13.46712      1.89442     13.63007         0.059360     -0.089869     -1.116329
O      13.42944     13.40336      0.58600        -0.128895      0.227636     -0.575473
O      13.25393     13.43638     13.79748         0.089071      0.165852     -2.644895
O       1.92965      2.00936      5.08296         0.008083     -0.205176     -0.127673
O       1.85154     13.47318      5.03197         0.126677      0.104215     -1.024741
O      13.33517      1.85090      4.88362         0.317863     -0.016003      0.565953
O      13.51307     13.35696      4.95226        -0.237477      0.403710     -0.923541
O       1.92710      1.85043      9.30151        -0.308761      0.131949     -1.518982
O       1.94182     13.58217      9.26487        -0.327948     -0.561886     -0.518029
O      13.43629      1.82122      9.23493        -0.025560      0.182105      0.628555
O      13.40420     13.46153      9.28139         0.271980     -0.056983     -1.057971
O       1.87234      5.67585      0.69553         0.324062      0.144819     -3.021782
O       2.01575      5.64199     13.61717        -0.186664      0.416972     -1.299910
O      13.42193      5.77461      0.71461         0.146322     -0.142286     -2.067011
O      13.41822      5.62301     13.72564         0.072524      0.031869     -0.082320
O       1.86570      5.75037      5.09075         0.157864     -0.142172     -2.297284
O      13.46675      5.72980      4.85410        -0.016255      0.156398      0.416735
O       1.83621      5.85415      9.34263        -0.135233     -0.102284     -0.790326
O      13.45902      5.70466      9.28259        -0.027980      0.369850      0.798853
O       1.74994      9.54072      0.63449         0.446470      0.076777     -1.495417
O       1.83068      9.56016     13.64614         0.101663      0.115406     -3.405274
O      13.22934      9.59234      0.57781         0.359251     -0.102615     -1.430795
O      13.37129      9.55623     13.76757         0.107623      0.105349     -1.645268
O       1.89435      9.42889      4.91487        -0.521697      0.739795     -1.075413
O      13.48481      9.69863      4.99599        -0.160451     -0.265681     -0.984989
O       1.93036      9.44512      9.29633        -0.586722      0.558400     -0.225750
O      13.38942      9.60537      9.30789         0.232991     -0.102733     -0.177044
O       5.79573      1.81100      0.53375        -0.486789      0.487123     -0.293564
O       5.72012      1.85623     13.74086         0.186622     -0.178114     -0.142040
O       5.68818     13.24492      0.66419         0.066225      0.518501     -0.969338
O       5.65114     13.49112     13.66992         0.266768     -0.067269     -0.599189
O       5.75828      1.89580      4.92900         0.214166      0.015543     -0.072117
O       5.73977     13.36100      5.02714         0.204939     -0.102073     -1.844468
O       5.86160      1.95884      9.22452        -0.218164      0.186082     -0.869582
O       5.73647     13.42399      9.33460         0.263855      0.050546     -1.501061
O       5.59445      5.69741      0.66549         0.192301      0.081606     -1.671952
O       5.81544      5.73071     13.58595        -0.432875     -0.024870     -0.197918
O       5.74214      5.70570      4.94292        -0.097882      0.144585     -1.204645
O       5.81733      5.74851      9.37448        -0.038923     -0.072484     -1.944417
O       5.68192      9.67128      0.64840         0.141751     -0.433681     -0.674950
O       5.69864      9.46600     13.71235        -0.056716      0.572530     -1.454731
O       5.75065      9.60437      4.93711         0.215700      0.222501     -0.786800
O       5.62463      9.59627      9.32565         0.274605     -0.128868     -1.733696
O       9.59640      1.81218      0.54476        -0.003930     -0.298938     -0.441857
O       9.46520      1.97413     13.76105         0.466337     -0.021867      0.002547
O       9.55107     13.29276      0.65063         0.031269      0.407039     -0.389236
O       9.73202     13.31589     13.59491        -0.278431      0.358282      0.621341
O       9.65324      1.87587      4.80300        -0.197154      0.017399      0.984158
O       9.58234     13.23635      5.01292        -0.009429      0.603502     -0.707817
O       9.54794      1.90035      9.26441         0.266983     -0.024521     -1.293368
O       9.56030     13.54074      9.32354        -0.163382     -0.079142     -1.574838
O       9.50801      5.73076      0.53661        -0.049719      0.033836      1.022067
O       9.59580      5.67728     13.80406        -0.276441      0.050488     -1.198193
O       9.66981      5.80429      4.97941        -0.308254      0.179073     -2.648106
O       9.71818      5.74043      9.40292        -0.458005      0.046028     -1.002496
O       9.41369      9.53780      0.51933         0.395481      0.104977      0.666608
O       9.49646      9.62891     13.67020        -0.046422     -0.302809     -1.347363
O       9.41183      9.46860      5.07286         0.329836      0.341845     -1.039545
O       9.54827      9.54740      9.37281         0.319814     -0.059628     -0.285606
O       3.93270      1.76589      2.84742        -0.538681      0.719036     -0.530512
O       3.85846      1.82471     15.78512        -1.559904      0.464633      0.522141
O       3.87068     13.45868      2.84797        -0.506359      0.047907     -0.062667
O       3.71455     13.36194     15.76730         2.163753     -0.118749      0.499512
O       0.08314      1.92547      2.73382        -0.501358     -0.271750      0.463097
O      15.31091      1.84470     15.86646         2.130233     -0.060485     -0.065185
O       0.02195     13.42620      2.72717        -0.249709      0.181611      0.136068
O      15.32070     13.29342     15.81330         0.068418      0.477226      0.151275
O       3.85153      1.92653      7.24473         0.133082      0.499729     -0.789631
O       3.84177     13.41042      7.10127        -0.204026      0.105627     -0.013387
O      15.25363      2.01184      7.09880         1.684239     -0.592529      0.166109
O       0.00962     13.50083      7.12470        -0.565778     -0.118603      0.392283
O       3.80136      2.04040     11.42129         0.549475     -0.855919      0.098358
O       3.80471     13.44643     11.41622        -0.572745     -0.261891      0.353330
O       0.04200      1.85137     11.49150        -0.712597      0.405990     -0.062559
O      15.33333     13.51538     11.47008         0.204695     -0.687313     -0.045260
O       3.86707      5.75731      2.77331        -1.335363      0.088055      0.315601
O       3.83206      5.67912     15.90828        -0.027315     -0.293951     -0.407302
O       0.05256      5.76502      2.78897        -0.326741     -0.648868      0.222780
O      15.35359      5.68477     15.87426        -0.439943      0.478837     -0.215088
O       3.84787      5.80012      7.26819        -0.331267     -0.586797     -0.405871
O       0.01893      5.80361      7.19212        -1.318141     -0.302200     -0.185598
O       3.81415      5.71895     11.36607        -0.039303      0.408365      0.521091
O      15.29486      5.68965     11.49686         0.781815      0.437798      0.208963
O       3.76319      9.55115      2.81435         0.594881      0.107733     -0.095008
O       3.72982      9.57127     15.79433         0.719481      0.070797     -0.004233
O      15.22708      9.69490      2.64928         1.413675     -0.176134      0.775759
O      15.27164      9.50581     15.86506         0.249277      0.022039     -0.029626
O       3.77549      9.71778      6.98630         0.712020     -0.395951      0.367947
O      15.33381      9.63644      7.08940        -0.822789     -0.462515      0.277867
O       3.77636      9.51356     11.42471        -0.418580      0.174521      0.375984
O      15.22813      9.47736     11.60020         1.359862      0.382463     -0.620657
O       7.61262      1.95817      2.64469         1.515687      0.108565      0.334860
O       7.64943      1.84085     15.90494         0.414222     -0.085780      0.265705
O       7.67822     13.29549      2.84404         0.594788      0.100514     -0.103684
O       7.75256     13.44484     15.77441        -1.843052     -0.175363     -0.047013
O       7.67123      1.99956      7.14789         0.383223     -0.629308     -0.414626
O       7.68334     13.41358      7.03645        -0.483971      0.242909      0.555255
O       7.63474      1.85448     11.35840         0.255617      0.016939      0.355597
O       7.70914     13.52619     11.48590        -1.985470     -0.255970      0.110884
O       7.67657      5.66824      2.79488         0.124590      0.205906     -0.170873
O       7.58276      5.71814     15.84904        -0.644577      0.271599      0.011037
O       7.64516      5.83584      7.06367         0.253585     -0.243683      0.137747
O       7.64911      5.84783     11.35240         0.830119     -0.386777      0.693580
O       7.59644      9.56261      2.73301         1.223371      0.479442      0.151195
O       7.62076      9.46704     15.85390        -0.812259      0.352721     -0.260540
O       7.66509      9.52413      7.18563        -0.983430      0.420130      0.094867
O       7.63533      9.55335     11.49232         0.290645     -0.081126      0.014365
O      11.50507      1.74203      2.62488         0.096589      0.244800      0.214761
O      11.63618      1.93562     15.82297        -2.328706     -0.372460      0.320860
O      11.51856     13.38227      2.72728         0.095809      0.728697      0.167277
O      11.48066     13.41949     15.99332        -0.849075      0.107460     -0.122136
O      11.46159      1.92682      7.14450         0.086908      0.025533     -0.209298
O      11.47061     13.47148      7.01726         0.657773     -0.327188      0.433047
O      11.53995      1.94922     11.48291        -0.060806     -0.716659     -0.549933
O      11.51907     13.45273     11.38912         0.292726     -0.173118      0.390791
O      11.50524      5.83914      2.72686        -0.569091     -0.092498      0.439105
O      11.45077      5.52747     15.90676         0.828126      0.758616     -0.232294
O      11.52429      5.77361      7.04420        -0.193744     -0.352984      0.111588
O      11.57482      5.63679     11.57219        -0.998158      0.408928      0.063621
O      11.50828      9.54712      2.75233        -0.718631     -0.357701      0.130649
O      11.41993      9.53646     15.76446         0.112929      0.098517      0.517974
O      11.50445      9.60149      7.15328         0.335507      0.223228     -0.213689
O      11.50640      9.59898     11.58145        -0.273417      0.356429     -0.367390
O       1.97187      3.75222      2.71174         0.417447      0.820616      0.151222
O       1.82654      3.86625     15.69541         0.710200     -1.360233      0.749450
O       2.02953      0.00879      2.77471        -0.734617     -0.837426      0.383417
O       1.89061     15.27291     15.74183        -0.157161      0.945704      0.338514
O      13.36858      3.84334      2.77843         0.201034     -0.480107      0.166513
O      13.51788      3.65295     15.92034        -0.313430      2.346467     -0.003434
O      13.50144      0.01412      2.74570        -0.249880     -1.092140      0.345861
O      13.49820     15.35203     15.79632        -0.415593     -0.709233      0.552044
O       1.96584      3.86268      7.18179        -0.329461     -0.024324      0.545960
O       1.95756      0.07349      7.14888        -0.555886     -0.635481     -0.265593
O      13.39734      3.78017      7.09566         0.027774      1.226541     -0.103031
O      13.38866     15.32500      7.12205         0.064357      0.600629     -0.101164
O       1.94048      3.76894     11.40407        -0.649855      0.926620      0.272946
O       1.85861     15.31397     11.47709         0.510626      0.061898      0.224995
O      13.39105      3.79637     11.38359         0.774850     -0.385564      0.318533
O      13.52662      0.00961     11.44687        -0.775225     -0.389514      0.209777
O       1.79990      7.67835      2.72779         0.420598     -0.184638      0.159293
O       1.86418      7.57444     15.77949         0.250014      0.699192      0.086198
O      13.54054      7.65274      2.73111        -0.520757      1.333288      0.343319
O      13.28482      7.57739     15.70461         0.211904     -0.060706      0.812172
O       1.96941      7.68541      7.07356        -0.685049      0.833254      0.391173
O      13.28915      7.62946      7.00939         1.160300      0.664641     -0.003397
O       1.84279      7.67555     11.47160        -0.029882     -0.278116      0.248479
O      13.28836      7.66605     11.55059         0.658326     -0.182952     -0.177128
O       1.94207     11.56743      2.79635         0.111215     -0.668453     -0.041823
O       1.89755     11.39702     15.81296        -0.479382      0.742777      0.026414
O      13.37753     11.53224      2.70004         0.130052      0.379288      0.281023
O      13.29852     11.51841     15.76194         0.148185     -0.718683      0.730036
O       1.86611     11.49954      7.08092        -0.314630      1.064087      0.227775
O      13.51222     11.58449      7.08806        -0.329126     -0.877556      0.459898
O       1.87553     11.51913     11.44958        -0.155935     -0.763379     -0.265094
O      13.55920     11.51704     11.37578        -0.568415     -0.142557      0.334663
O       5.71478      3.85070      2.78130         0.054546     -0.639713     -0.326832
O       5.74791      3.76083     15.85963        -0.388868      0.917285      0.072802
O       5.97534     15.30085      2.81698        -0.871663      0.127027     -0.242305
O       5.65799     15.28904     16.00737         0.800664     -0.944717     -0.810865
O       5.72584      3.85701      6.96216         0.210122     -0.499096      0.850404
O       5.82117      0.02755      7.08856        -0.147152     -0.803733     -0.074415
O       5.79896      3.84815     11.48980        -0.181967     -0.017303     -0.295891
O       5.62923     15.34803     11.39090         0.446834      0.859000      0.261201
O       5.72624      7.66644      2.82977         0.266539      0.190287     -0.293198
O       5.55495      7.66679     15.72431         0.687741     -0.709508      0.441000
O       5.67489      7.65492      7.03016         0.252418      1.101734      0.120519
O       5.77210      7.70436     11.49585        -0.401962     -0.735347      0.109161
O       5.64657     11.54524      2.71705         0.426548     -1.515069      0.997756
O       5.75952     11.51879     15.76909        -0.064281      0.140144     -0.006336
O       5.73386     11.51746      7.20381         0.454541     -0.429188     -0.513069
O       5.62989     11.50608     11.35750         0.502997     -0.146723      0.823179
O       9.74664      3.77862      2.68579        -0.812004      0.212706     -0.129932
O       9.47260      3.80779     15.99912         0.195093     -0.473917     -0.155025
O       9.63648     15.29734      2.80396        -0.707104     -0.634554     -0.201443
O       9.56944     15.30334     15.77695         0.571547      0.334219      0.413615
O       9.50757      3.85423      6.94615         0.358892      0.150739      0.529804
O       9.67104      0.05632      6.99983        -0.753368     -0.462461      0.233600
O       9.58188      3.77453     11.44729        -0.225266      0.267002      0.069920
O       9.58293      0.01744     11.47029         0.311183      0.257885      0.192705
O       9.55320      7.65218      2.74039        -0.145290      0.370552      0.157371
O       9.57972      7.61803     15.90361        -0.214043      0.094833     -0.239664
O       9.58111      7.69447      7.16481         0.222992     -0.586072      0.197149
O       9.67773      7.58205     11.53022        -0.268177      1.182912      0.207557
O       9.74951     11.44264      2.76107        -1.360250     -0.156825     -0.289177
O       9.45936     11.40674     15.80136         0.542670      1.034381      0.151462
O       9.56343     11.49894      7.20478         0.078398      0.269310      0.022331
O       9.43121     11.54627     11.48789         0.769941     -0.891976     -0.301194
