  # total energy = -7881.44587787 
CRSYTAL
PRIMVEC
    15.3600000000000000    0.0000000000000000    0.0000000000000000
     0.0000000000000000   15.3600000000000000    0.0000000000000000
     0.0000000000000000    0.0000000000000000    17.440000000000000
PRESSURE
0.019193 0.699806 -2.70927 -0.01712 -0.254794 0.030297
PRIMCOORD
320 1
Pb       3.92389      3.81181      4.40156        -0.409825      0.121213     -0.679165
Pb       3.90821      3.81156      0.02386        -0.221740      0.022987     -0.345630
Pb       3.76888      0.02510      4.34118         0.328902     -0.101695     -0.478900
Pb       3.75283     15.29618     17.35302        -0.240656      0.116269      0.087478
Pb       0.08181      3.77394      4.37217        -0.673864      0.268046     -0.669224
Pb       0.07236      3.90876      0.00788        -0.124991     -0.202748     -0.111606
Pb       0.10958      0.03710      4.36132        -0.539433     -0.243873     -0.527393
Pb      15.23498      0.04143     17.37762         0.072507     -0.339487     -0.259664
Pb       3.75149      3.77514      8.71993        -0.300219      0.262927     -0.354069
Pb       3.80150     15.33380      8.62149        -0.014259     -0.122075     -0.103944
Pb      15.10836      3.96716      8.63855         0.290594      0.169273      0.010063
Pb      15.20881     15.30838      8.73451         0.402713     -0.243016     -0.092292
Pb       3.87475      3.63866     13.08638        -0.250144      0.618926     -0.049279
Pb       3.76183      0.01189     12.93097        -0.178250     -0.356273      0.325973
Pb       0.03145      3.78587     13.03419         0.239027     -0.234642      0.113405
Pb      15.29623     15.23388     13.07249         0.063635      0.046467     -0.353143
Pb       3.84211      7.67081      4.32383        -0.017888      0.023374      0.023065
Pb       3.81467      7.60703      0.00880        -0.097558      0.239137     -0.466460
Pb       0.15157      7.81191      4.31865        -0.695959     -0.353732     -0.425833
Pb      15.29149      7.69894      0.03676        -0.478737      0.077386     -0.081713
Pb       3.78728      7.72080      8.62231         0.044638     -0.035238      0.220751
Pb      15.32374      7.62124      8.63802        -0.236258     -0.237308     -0.203196
Pb       3.87626      7.55545     13.03249        -0.241713      0.354301      0.060892
Pb      15.33012      7.64551     13.10137         0.174607      0.120321     -0.181652
Pb       3.81214     11.57181      4.26321        -0.058427     -0.326321      0.293145
Pb       3.95837     11.61777     17.41447        -0.982676     -0.492919     -0.016097
Pb       0.10509     11.55323      4.33488        -0.626550     -0.178992      0.103848
Pb      15.26175     11.52522     17.34928        -0.022463      0.065123     -0.080607
Pb       3.87266     11.50270      8.63884         0.045201     -0.255579      0.050587
Pb      15.34098     11.46302      8.72714        -0.170342      0.089343     -0.450549
Pb       3.92735     11.40822     13.09133        -0.269719     -0.165023     -0.304547
Pb       0.19702     11.53361     13.02899        -1.284895     -0.084555      0.196138
Pb       7.69100      3.77876      4.26244         0.079773      0.192938      0.298931
Pb       7.69659      3.84630      0.03900         0.236735     -0.320469     -0.330406
Pb       7.67819     15.34618      4.42216        -0.272211     -0.175490     -0.227255
Pb       7.51892      0.04905     17.31971         0.381905      0.022123      0.277227
Pb       7.53006      3.89797      8.74585         0.515278     -0.554876     -0.344329
Pb       7.66307     15.32451      8.78370         0.362375     -0.568963     -0.280819
Pb       7.87600      3.91301     13.02766        -0.245087     -0.235501     -0.009134
Pb       7.69467      0.11228     12.99359         0.256677     -0.210515     -0.211225
Pb       7.73831      7.55011      4.33286        -0.106714      0.206334     -0.086127
Pb       7.58563      7.76658      0.00971         0.078580      0.218519     -0.378977
Pb       7.73406      7.62611      8.71243        -0.320524      0.403040     -0.415241
Pb       7.68720      7.73012     13.07564        -0.288238      0.029456     -0.213575
Pb       7.64190     11.47103      4.34915        -0.036193     -0.092580     -0.297732
Pb       7.69046     11.58763     17.33202         0.261346     -0.469264     -0.039875
Pb       7.61189     11.60043      8.62058         0.461823     -0.004890      0.063500
Pb       7.79453     11.55398     12.95581        -0.372742     -0.206814      0.162401
Pb      11.45058      3.76378      4.30370         0.608359     -0.036574     -0.007133
Pb      11.71415      3.90620      0.14846        -0.658959     -0.510807     -0.671660
Pb      11.61035     15.28278      4.37860         0.102492     -0.059747     -0.650301
Pb      11.24450     15.25507      0.04097         0.765016      0.218833     -0.263417
Pb      11.44479      3.87023      8.66239         0.188869     -0.009509     -0.265516
Pb      11.48472      0.04759      8.76819        -0.337205     -0.507826     -0.566033
Pb      11.56811      3.72178     13.02692        -0.557430      0.215678      0.081696
Pb      11.50666     15.30061     13.08325        -0.137682      0.032594     -0.091014
Pb      11.56735      7.54696      4.37477        -0.226468     -0.142488     -0.368919
Pb      11.47472      7.70887     17.41835         0.379723      0.068989     -0.278878
Pb      11.59090      7.72360      8.68499        -0.164296     -0.332848     -0.004030
Pb      11.34374      7.59058     13.15030         0.426795      0.185347     -0.504303
Pb      11.54786     11.43225      4.27174         0.045545      0.556820     -0.345368
Pb      11.39803     11.43483     17.36004         0.401971      0.200969     -0.024804
Pb      11.54311     11.42192      8.61982        -0.448323      0.508584      0.476476
Pb      11.56258     11.48561     13.04559         0.276697     -0.278801     -0.421027
Ti       1.90671      1.95608      2.22907        -0.130974     -0.045824     -0.050653
Ti       1.91143      1.95079     15.35312        -0.575426     -0.712957      0.091962
Ti       1.84704     13.44717      2.28600         0.882101     -0.231285      0.452363
Ti       1.81727     13.39134     15.34904        -0.083911     -0.482483      1.206187
Ti      13.41846      1.85018      2.34064         0.302444      0.127368      0.521814
Ti      13.39912      1.95739     15.35024         0.088021     -1.248477     -0.375929
Ti      13.49020     13.36642      2.32136        -1.155348      0.218036     -1.798527
Ti      13.27838     13.45128     15.42617         1.054039     -0.250721     -0.968448
Ti       1.82103      1.86964      6.73943         0.104597      0.100805      2.028610
Ti       1.93314     13.41245      6.76496        -0.744589     -0.571917     -1.198025
Ti      13.41206      1.87432      6.65695        -1.006964      0.730250     -1.767242
Ti      13.43386     13.46374      6.65454        -0.200024     -1.356778     -1.008069
Ti       1.89231      1.87600     10.89558        -0.576703     -0.143334     -0.233516
Ti       1.91989     13.35046     10.90747        -0.649422      0.756104      0.388648
Ti      13.44748      1.87797     11.02900         0.138505      0.088302      0.665772
Ti      13.37270     13.48540     10.98786         0.207492     -1.672116      0.313040
Ti       1.93865      5.77874      2.37298        -0.865313     -0.636923      0.694205
Ti       1.87655      5.73423     15.38705         0.386807     -0.386306     -1.197262
Ti      13.42514      5.74003      2.30012         0.941869     -0.752620      0.627348
Ti      13.43850      5.69396     15.35710        -0.366134      1.251085     -0.593172
Ti       1.87769      5.64825      6.54918        -0.043892      0.968182     -0.384434
Ti      13.31137      5.78258      6.59989         1.000198     -0.012261     -1.378348
Ti       1.93662      5.69188     11.05311        -0.673556     -0.056893     -0.215902
Ti      13.39822      5.72536     11.25509        -0.644030      0.112664     -2.570212
Ti       1.86914      9.61430      2.28034        -0.549003      0.118579      0.318571
Ti       1.80964      9.48220     15.46203        -0.277254      1.729083      0.128595
Ti      13.29184      9.48291      2.32116         1.613863      0.928091     -0.514362
Ti      13.35047      9.52158     15.31964         0.605236      0.982570      0.019434
Ti       1.82564      9.53780      6.70908        -0.058623      0.570867     -0.535280
Ti      13.31113      9.62791      6.52477         0.634855     -0.133643      0.033073
Ti       1.79447      9.51212     11.01601         0.841340      0.072693     -0.599542
Ti      13.35825      9.48435     11.04369        -0.818435      1.466865      1.624236
Ti       5.75803      1.89547      2.29976        -0.938508     -0.986940     -0.923517
Ti       5.69353      1.96106     15.37127         0.804737     -0.004166     -0.386178
Ti       5.72769     13.35784      2.27864        -0.047837      0.243187      0.320856
Ti       5.70828     13.49145     15.28204        -0.360515     -0.242304      0.454095
Ti       5.74307      1.83180      6.69910         0.084167      0.291793     -0.869158
Ti       5.76767     13.38364      6.59789         0.314287      0.235462      0.443455
Ti       5.73047      1.90072     10.95712         0.633309     -0.448182      0.733298
Ti       5.68324     13.43173     11.08573         1.210205     -0.564909     -0.577263
Ti       5.72666      5.74265      2.28606         0.135156     -0.022306      0.392254
Ti       5.77609      5.78414     15.39354        -0.692063     -0.149210     -0.124894
Ti       5.71798      5.72830      6.67354         0.041652      0.579619     -0.809274
Ti       5.64837      5.67713     10.96550         0.940900      0.774159      0.531005
Ti       5.66833      9.54225      2.31580         0.149529      1.416810      0.408245
Ti       5.62729      9.66011     15.40138         0.697963     -0.713991     -1.518247
Ti       5.74906      9.56871      6.58344        -0.472395     -0.051187      0.917880
Ti       5.68401      9.59162     11.03917        -0.048604     -0.052529      0.510562
Ti       9.53679      1.81626      2.37538         1.033011      0.333864     -1.015446
Ti       9.59540      1.90371     15.51217         0.284731      0.602564     -1.424478
Ti       9.50104     13.40988      2.32968         0.801877     -0.985095     -1.388695
Ti       9.47729     13.43287     15.29184         0.856361      0.069393     -0.566513
Ti       9.50721      1.85806      6.70402         1.129627      0.082127     -0.786030
Ti       9.64680     13.38033      6.64081         0.059445     -0.224461      1.298185
Ti       9.63324      1.90762     10.95202        -0.364765     -0.277009     -0.562658
Ti       9.54973     13.40974     11.02384         0.518032     -0.087596     -0.575397
Ti       9.61115      5.71992      2.23908         0.333200      0.007494     -0.384374
Ti       9.54610      5.72140     15.50615         0.666849     -0.985415     -0.543721
Ti       9.57528      5.72328      6.64073        -0.068779     -0.061701     -0.355536
Ti       9.52257      5.75947     11.04331         1.267920      0.274365      0.916070
Ti       9.47741      9.54933      2.37873         0.009525      0.026682     -1.453573
Ti       9.53736      9.46724     15.31822        -0.701328      1.428157     -0.093792
Ti       9.49695      9.53497      6.59117         0.908509      0.945588     -0.837836
Ti       9.51156      9.52710     10.99076         0.899474      1.012463      0.835702
O       1.96760      1.92302      0.42382        -0.216099      0.173103      1.119819
O       1.94448      2.03812     13.56933         0.152459     -0.492285      0.316189
O       1.73310     13.55702      0.58302         0.629475     -0.296013     -0.729700
O       1.85164     13.23719     13.59076         0.082787      0.658055     -0.591775
O      13.49850      1.83451      0.59927        -0.195904      0.340671     -0.970213
O      13.33062      1.91771     13.51147         0.103541      0.250777      1.484437
O      13.32394     13.44984      0.45347         0.434013      0.109176      0.841756
O      13.41861     13.45835     13.58740        -0.025161      0.221653      0.838883
O       1.86711      1.81726      5.03257         0.181224      0.403828     -1.821714
O       1.85090     13.20506      4.94958         0.224695      0.895620      0.424995
O      13.41883      1.94898      4.80014        -0.025472     -0.409974      1.862184
O      13.40308     13.32163      4.82204        -0.115737      0.436059      0.927505
O       1.94494      1.85582      9.05396        -0.230802      0.075419      1.864184
O       1.87789     13.41659      9.13650         0.275075     -0.038424     -0.246001
O      13.48325      1.85184      9.24727        -0.436073      0.023635      0.092337
O      13.43528     13.48011      9.22467         0.055130      0.253344     -0.565758
O       1.86956      5.63278      0.61736         0.141814      0.337942     -0.629295
O       1.95610      5.72629     13.57331        -0.258053      0.073159      0.843236
O      13.57260      5.82088      0.50630        -0.567661     -0.629299      0.044195
O      13.33631      5.70227     13.53393         0.440308     -0.184413      0.358008
O       2.03017      5.66155      4.72137        -0.406919      0.158982      1.653103
O      13.22399      5.76223      4.78794         0.376351     -0.063304      1.060393
O       1.89886      5.71178      9.29428         0.085944      0.043088     -0.198747
O      13.30610      5.83681      9.28975         0.459180     -0.383586      1.343124
O       1.80666      9.58313      0.55111         0.187061     -0.248750     -0.948194
O       1.76018      9.54742     13.69319         0.141585     -0.145274     -0.279703
O      13.29490      9.50565      0.53381        -0.119550     -0.216987      0.007271
O      13.34489      9.66213     13.56242         0.097486     -0.582197      0.190079
O       1.78895      9.62908      4.87139         0.141592     -0.299406      1.487811
O      13.37188      9.61171      4.72369        -0.222547     -0.130876      0.647385
O       1.86172      9.61579      9.21627        -0.250929     -0.437288      0.690123
O      13.20525      9.46563      9.29093         0.611106     -0.083038     -0.031224
O       5.69460      1.92403      0.48408         0.224831     -0.024088      1.036434
O       5.68320      1.73533     13.57495         0.050065      0.830342      0.386677
O       5.70125     13.31107      0.49621         0.332337      0.182390      0.042890
O       5.75094     13.46374     13.51790        -0.403818      0.118234      0.571861
O       5.82917      1.80693      4.87596        -0.551227      0.215979      1.014014
O       5.76288     13.39801      4.86751        -0.072458      0.075392     -0.699928
O       5.75711      1.92358      9.20392        -0.259451      0.134816     -0.452023
O       5.77130     13.30342      9.32073        -0.006149      0.286869     -0.896916
O       5.66890      5.83051      0.51442        -0.147541     -0.216274      0.738789
O       5.70488      5.67679     13.60496         0.496232      0.302977      0.849072
O       5.74391      5.88116      4.85974        -0.517034     -0.581785      0.797265
O       5.75697      5.50991      9.16862        -0.182614      0.663147      0.499124
O       5.64974      9.49902      0.54817         0.272817      0.285207     -0.530554
O       5.61664      9.70612     13.55490         0.091775     -0.476382      1.259498
O       5.67254      9.66226      4.84325         0.109687     -0.551423      0.082085
O       5.64859      9.61736      9.31037         0.276723      0.368026     -0.758180
O       9.53814      1.76784      0.55551        -0.216034      0.034791      1.337156
O       9.66520      1.78554     13.65184        -0.267145      0.709440      0.761877
O       9.53080     13.38515      0.41659        -0.140080      0.300876      1.639695
O       9.58376     13.59122     13.49347        -0.437319     -0.399807      0.966029
O       9.57913      1.91460      4.86609        -0.329209     -0.303353      0.649179
O       9.77036     13.36924      4.90162        -0.283534      0.025631     -0.834464
O       9.60039      1.99799      9.13240         0.218271     -0.416422      0.856966
O       9.47920     13.42806      9.25486        -0.093394     -0.073746     -0.478733
O       9.61608      5.59165      0.44948         0.045465      0.721576      0.558246
O       9.49823      5.73544     13.66182        -0.285893     -0.253040      0.858240
O       9.78129      5.78742      4.88798        -0.732832      0.064766      0.229665
O       9.49263      5.73478      9.32132        -0.119716      0.161918     -2.258266
O       9.37491      9.46618      0.47716         0.574510      0.215705      1.414392
O       9.46843      9.51835     13.53008         0.187692     -0.106507      1.044889
O       9.48739      9.46703      4.73852         0.469482      0.400102      1.078077
O       9.49146      9.42129      9.22825        -0.085685      0.240456      0.181529
O       3.81809      1.95732      2.71779         0.373650     -0.028844      0.293331
O       3.83667      2.00872     15.75662        -0.506526     -0.278394     -0.001057
O       3.81085     13.24538      2.64140         0.100334      0.356905      0.030679
O       3.72837     13.33835     15.92410         1.482772      0.492074     -0.952848
O       0.01811      1.92433      2.77988         0.838561     -0.238736     -0.183782
O       0.03172      1.82673     15.68742        -0.658440      0.252151      0.034791
O       0.07917     13.52978      2.70035        -1.695709     -0.166473      0.593827
O      15.32204     13.51935     15.84988        -0.744694     -0.390328     -0.496745
O       3.76046      1.98039      7.13976         0.960544     -0.216434     -0.517431
O       3.84468     13.39392      6.95694        -0.359214      0.052901      0.570115
O      15.23556      1.83667      7.11105         0.347979      0.100674     -0.175264
O      15.29489     13.49384      7.11847        -0.321802     -0.011169     -0.078280
O       3.79933      1.78206     11.45254         0.266565      0.273957     -0.828161
O       3.83545     13.51831     11.35734        -1.214973     -0.248076      0.109480
O      15.34592      1.95177     11.52617         0.418804     -0.126563     -0.812759
O       0.01438     13.43368     11.30161        -0.179996     -0.301121      0.377550
O       3.83830      5.64005      2.82035         1.089428      0.134775     -0.561392
O       3.76508      5.79175     15.80996         0.278872      0.004625      0.133479
O       0.01460      5.77033      2.76801         0.022319     -0.039876     -0.026965
O      15.33327      5.79485     15.72452        -0.320777     -0.080449      0.179432
O       3.74156      5.83108      7.04678         0.381377     -0.815670     -0.206942
O      15.26222      5.77580      6.97579         0.121343      0.064885      0.137631
O       3.83800      5.72930     11.57983         0.151584     -0.016380     -0.958232
O       0.04005      5.49886     11.40079        -0.847240      0.830317      0.240703
O       3.77326      9.71612      2.73855         0.401853     -0.031523     -0.180260
O       3.74345      9.64810     15.74934         0.175330     -0.393459      0.209702
O      15.26995      9.49678      2.67245         0.639100     -0.736973      0.234533
O      15.19765      9.66508     15.79541         0.855370     -0.599620      0.144392
O       3.79133      9.58241      7.14946        -0.635156      0.047604     -0.617581
O      15.26636      9.53599      7.18609         0.081144      0.014771     -0.553445
O       3.77661      9.49357     11.45195        -0.714555      0.271101      0.061528
O      15.25980      9.58621     11.48520         0.399926     -0.295985     -0.520296
O       7.61851      1.88604      2.79949         0.731120     -0.225439     -0.294622
O       7.67139      1.96924     15.79544        -0.824856      0.099336      0.099439
O       7.64775     13.38974      2.75932         0.416569      0.214868     -0.167387
O       7.56287     13.51189     15.72493         0.370156     -0.257100     -0.135042
O       7.65346      1.76935      7.02523        -0.688281      0.367342      0.254835
O       7.68085     13.44706      7.01017        -0.593605     -0.430898      0.093530
O       7.76136      1.99070     11.24195        -1.395483      0.290460      0.596038
O       7.70918     13.35967     11.41287        -1.284175     -0.166133      0.346729
O       7.69636      5.74261      2.72975        -1.098109      0.187517     -0.291316
O       7.63728      5.65501     16.01246        -0.331502      0.397439     -1.004501
O       7.59451      5.87031      6.80916         1.215638     -0.096554      0.960813
O       7.69099      5.68909     11.46599        -1.558582     -0.103502     -0.105490
O       7.63589      9.66370      2.79582        -0.312460     -1.350496     -0.349335
O       7.59638      9.48615     15.71406        -0.031374      0.604439      0.182942
O       7.66200      9.60753      6.91518        -0.980373     -0.281696      0.332941
O       7.62098      9.64597     11.54072         0.025711     -0.215625     -0.690378
O      11.47106      1.90805      2.70971        -0.765000     -0.576572     -0.178711
O      11.45738      1.95718     16.00823         1.361008      0.045284     -0.601878
O      11.58261     13.41849      2.58296        -1.081545      0.020802      0.645507
O      11.40278     13.43713     15.57090        -0.319231      0.498170      0.736546
O      11.49137      1.90365      7.10735        -0.280462     -0.016836      0.042993
O      11.51897     13.26024      7.15334         0.004854      0.925330     -0.362113
O      11.49475      1.82599     11.47943         0.209840     -0.056684     -0.701902
O      11.49036     13.62933     11.22056         0.122569     -0.030021      0.696102
O      11.53149      5.71680      2.67314        -0.436045     -0.071861     -0.429751
O      11.47968      5.72190     15.77132         0.445181      0.140581      0.249215
O      11.49313      5.76723      6.99587        -1.409824     -0.231172      0.714567
O      11.42714      5.80612     11.47232         1.010870      0.108622      0.252640
O      11.44353      9.65606      2.60360        -0.556049     -0.385605      0.277058
O      11.48289      9.52127     15.75477        -1.417199     -0.239880      0.181489
O      11.44326      9.70095      7.08246         0.434823     -0.774372     -0.792086
O      11.43073      9.53959     11.60327         0.324497     -0.660659     -0.785805
O       1.86722      3.82865      2.74050         0.346622     -0.779175     -0.030854
O       1.72730      3.83344     15.70513         0.752040      0.086220      0.374693
O       2.03257      0.01960      2.78555        -0.343867      0.118482     -0.161136
O       1.99366     15.25444     15.81777        -0.067851      1.446184     -0.701621
O      13.38243      3.73319      2.67239         0.261790      1.362682     -0.052357
O      13.56646      3.86730     15.76710        -0.651377     -0.788647      0.296687
O      13.55158     15.33463      2.72186        -0.566638     -0.357307      0.422824
O      13.45397      0.09349     15.66503        -0.650213     -0.599680      0.221540
O       1.71789      3.84690      6.98906         0.490910     -0.135137      0.111170
O       1.89243     15.33475      6.99173         0.208624     -0.281231      0.395365
O      13.33118      3.86329      6.98277         0.297187     -0.493485      0.465655
O      13.25925     15.32032      6.94444         0.224423      0.212530      0.284872
O       2.01406      3.74791     11.27658         0.216178     -0.418312      0.225329
O       1.83144     15.28329     11.34610         0.283222      0.873214     -0.009122
O      13.36847      3.80131     11.36724        -0.327928     -0.287568      0.275647
O      13.51579     15.35166     11.43389        -0.036403      0.430335     -0.032996
O       2.10644      7.68910      2.69876        -0.678629     -0.358590      0.104002
O       1.76151      7.62709     15.87158         0.541406      0.448130     -0.114943
O      13.43314      7.57293      2.60356        -0.591562      0.953311      0.496682
O      13.41379      7.64144     15.78489        -0.158570     -0.231327     -0.184856
O       1.78078      7.61175      7.04653         0.407609      0.612199     -0.261480
O      13.27805      7.71950      6.89679         0.144354     -0.157187      0.355787
O       1.77915      7.60206     11.44889         0.180065      0.534241     -0.041875
O      13.42347      7.59474     11.55857         0.298568      0.558746     -0.184231
O       1.66237     11.43609      2.66051         1.009082      1.330611     -0.095483
O       1.77629     11.50190     15.82969         0.128839     -0.235698      0.012328
O      13.51750     11.46683      2.51353        -0.193915      0.454475      0.628928
O      13.25264     11.52635     15.69532         0.252612      0.203682      0.471030
O       1.72725     11.54038      7.07877         0.478291     -1.197252      0.372474
O      13.40363     11.44814      6.98018         0.407432      0.612851      0.368286
O       1.81170     11.46222     11.32185         0.666279     -0.161047      0.026190
O      13.22299     11.50921     11.38383         0.587885      0.084845     -0.332734
O       5.80122      3.78558      2.59891        -0.129771      0.786041      0.409137
O       5.61907      3.88093     15.81832         0.642432     -0.150738     -0.207107
O       5.74799     15.25887      2.63334        -0.268856      0.719689      0.224198
O       5.75544      0.07898     15.80295        -0.782776     -1.167505     -0.325543
O       5.83281      3.81580      7.03236        -0.509829     -0.012718     -0.224514
O       5.69987     15.30502      7.05438        -0.225103      0.438015      0.172083
O       5.64160      3.79522     11.34479         0.248666     -0.419847      0.088722
O       5.81362     15.32754     11.30259         0.066976      1.155966      0.269724
O       5.59988      7.73420      2.67693         0.456113     -1.837454      0.185452
O       5.72629      7.70629     15.77622        -0.355291     -0.532443     -0.074392
O       5.71441      7.71605      7.23160        -0.004643     -0.461045     -0.689671
O       5.73238      7.63220     11.20883         0.170525     -0.598782      0.578686
O       5.85832     11.45668      2.74424        -0.573843      0.634306     -0.157773
O       5.74382     11.54473     15.70025        -0.142517      0.326166      0.211393
O       5.69012     11.48752      7.00879         0.283899     -0.202412      0.206788
O       5.62643     11.54678     11.43141         0.192748     -0.799674      0.308972
O       9.55341      3.88071      2.66053        -0.165963     -1.676807      0.354769
O       9.61742      3.80604     15.93209        -0.490349      0.334752     -0.390213
O       9.54678     15.25628      2.81212         0.141449      0.883931     -0.359459
O       9.54356      0.03037     15.73584        -0.153135     -1.316472      0.542854
O       9.49221      3.79251      6.93019         0.093954      1.044522      0.485676
O       9.50911     15.27156      7.05923         0.809235      0.634080      0.103000
O       9.72842      3.90233     11.36922        -0.512499     -1.666583      0.441121
O       9.40885     15.32002     11.28108         0.551945      1.593552      0.118312
O       9.58637      7.56898      2.69181        -0.105028      1.051639     -0.134928
O       9.42648      7.64062     15.68099         0.577916     -0.542283      0.459875
O       9.62927      7.73669      7.06071        -0.410223     -1.469665     -0.021501
O       9.54433      7.69169     11.51009        -0.535130     -0.435825     -0.164044
O       9.47109     11.48092      2.55897         0.580433      0.399814      0.508196
O       9.52402     11.48761     15.67624        -0.264445      0.280197      0.000606
O       9.56329     11.44890      7.07927        -0.382339      0.348021     -0.152230
O       9.68865     11.48972     11.38446        -0.452342     -0.297241      0.124152
