  # total energy = -7879.15011354 
CRSYTAL
PRIMVEC
    15.2000000000000000    0.0000000000000000    0.0000000000000000
     0.0000000000000000   15.2000000000000000    0.0000000000000000
     0.0000000000000000    0.0000000000000000    17.000000000000000
PRESSURE
8.50727 9.22834 4.97175 -0.065076 0.088943 -0.041464
PRIMCOORD
320 1
Pb       3.69986      3.87342      4.23086         0.080610     -0.545332      0.449316
Pb       3.81653      3.86062      0.08425        -0.289095     -0.288133      0.022020
Pb       3.65333      0.09338      4.34120         0.411781     -0.282121      0.279162
Pb       3.89696     15.19959      0.01555        -0.321439     -0.289914      0.168198
Pb      15.09541      3.91161      4.16115         0.539993     -0.176034      0.819053
Pb       0.01388      3.68170     16.97449         0.141819      0.432813      0.001085
Pb       0.00598      0.15574      4.26446        -0.416150     -0.281192      0.860674
Pb       0.04192     15.18163     16.86752         0.183459     -0.210452      0.055070
Pb       3.84457      3.70533      8.45635        -0.279231      0.965652      0.908225
Pb       3.76870     15.07661      8.56106        -0.168639      0.004887      0.184222
Pb      15.14582      3.78969      8.50212         0.204704     -0.101449      0.480130
Pb      15.13990     15.10246      8.66875        -0.085037      0.235294     -0.147205
Pb       3.79054      3.84472     12.73721         0.327013     -0.082898     -0.532494
Pb       3.82734     15.12765     12.69263        -0.091001     -0.259237     -0.188265
Pb       0.04889      3.59487     12.74845        -0.487801      0.300380     -0.166098
Pb       0.05544     15.16740     12.74089        -0.249410     -0.632232      0.036715
Pb       3.62634      7.72333      4.27957         0.306936     -0.266257      0.211497
Pb       3.94019      7.61002      0.05534        -0.549169      0.012311     -0.146121
Pb      15.16468      7.73588      4.18341        -0.675157     -0.715486      0.188782
Pb       0.15650      7.65567     16.91339        -0.545424     -0.298739      0.382925
Pb       3.71616      7.57789      8.42619         0.607130      0.039389      0.438847
Pb      15.09557      7.50575      8.50138         0.528199      0.350307      0.764426
Pb       3.85817      7.54787     12.62595        -0.690171     -0.141709      0.098798
Pb      15.13898      7.43507     12.65586         0.207577      0.878846      0.270682
Pb       3.59047     11.47678      4.27947         0.414192     -0.116261     -0.293956
Pb       3.91770     11.37780      0.17471        -0.212224      0.359361      0.011844
Pb      15.11219     11.49425      4.18757        -0.103044     -0.127179      0.624427
Pb       0.10477     11.41928     16.95740        -0.161376      0.207238      0.197598
Pb       3.76691     11.36109      8.48039         0.034569     -0.295500     -0.236604
Pb      15.00777     11.37683      8.51397         0.542192      0.197887      0.237390
Pb       3.78287     11.28992     12.73921         0.053554      0.747812     -0.277356
Pb       0.01678     11.24445     12.70496        -0.536964      0.368496      0.232044
Pb       7.57860      3.75265      4.10490         0.103383      0.300236      0.623576
Pb       7.55688      3.76917     16.96232         0.300404      0.025637      0.721748
Pb       7.60429      0.06398      4.19674         0.104765     -0.588078      1.164139
Pb       7.60382     15.17698      0.02536        -0.302916     -0.380786     -0.459237
Pb       7.66613      3.89450      8.31291        -0.578868     -0.627078      0.462445
Pb       7.57651     15.10430      8.32023         0.017292      0.265687      0.340298
Pb       7.49341      3.79298     12.72486         0.278194     -0.588687     -0.412607
Pb       7.62039      0.06700     12.70777         0.240873     -0.302814      0.234672
Pb       7.61911      7.68421      4.38080         0.480377     -0.334478     -0.205796
Pb       7.42447      7.64996     16.95905         0.897454     -0.448503      0.630253
Pb       7.60972      7.58022      8.41705        -0.574266     -0.070487      0.155639
Pb       7.58539      7.49014     12.73094         0.180719      0.227973     -0.105336
Pb       7.58030     11.39585      4.19359         0.177164      0.235832     -0.001171
Pb       7.69450     11.38004      0.00644        -0.426600      0.204735     -0.082478
Pb       7.51104     11.44959      8.37452         0.133921     -0.087084      0.348926
Pb       7.45633     11.21776     12.69174         0.886115      0.793266      0.530990
Pb      11.44506      3.63806      4.14543         0.159328      0.729550      0.309193
Pb      11.44355      3.73816     16.99978        -0.064027      0.182022      0.450994
Pb      11.42137      0.02408      4.17109        -0.192257     -0.102244      0.919888
Pb      11.45082     15.11087     16.89917        -0.235101      0.056833     -0.371613
Pb      11.32738      3.80422      8.45289         0.530799     -0.776255      0.167941
Pb      11.26594     15.16013      8.43448         0.308228      0.048932      0.277987
Pb      11.41018      3.80355     12.79787        -0.051466     -0.612336     -0.129580
Pb      11.39157     15.10447     12.82430        -0.252323     -0.140930     -0.365474
Pb      11.40391      7.75750      4.15732         0.261376     -0.776966      0.131917
Pb      11.28863      7.51358     16.95165         0.786375      0.482058      0.483594
Pb      11.29258      7.51377      8.39899         0.055534      0.784068      0.378514
Pb      11.28528      7.39950     12.72266         0.168093      1.391729      0.314450
Pb      11.43488     11.43080      4.13429        -0.450832     -0.142773      0.576173
Pb      11.34491     11.43374      0.03877         0.128278     -0.483313     -1.007957
Pb      11.30299     11.46117      8.50807         0.004549     -0.081111      0.245043
Pb      11.43160     11.37703     12.87111        -0.231478     -0.185456     -0.428697
Ti       1.90510      1.87259      2.24349        -0.136298      0.435886     -1.556583
Ti       2.00333      1.83603     14.91646        -0.923533     -0.131378      1.922147
Ti       1.68950     13.38390      2.40126         1.494579     -1.465461     -0.733962
Ti       2.02116     13.26437     15.00910        -1.266092      0.194170      0.226107
Ti      13.32266      1.78775      2.13430         0.302742      0.935472     -0.194793
Ti      13.30512      1.90250     15.00765         0.308336     -0.950946      0.382611
Ti      13.15815     13.30854      2.20026         0.887375      0.023786     -0.375853
Ti      13.28097     13.20968     15.04200         0.584935      0.405199     -0.718846
Ti       1.89496      1.89686      6.68581        -0.126119     -0.825184     -1.198478
Ti       1.78410     13.29199      6.57169        -0.286641      0.095833     -0.116383
Ti      13.38222      1.89976      6.56751        -0.945051     -0.251227      0.066696
Ti      13.24760     13.33125      6.59229        -0.499227      0.144696     -0.958886
Ti       1.95537      1.84847     10.74775        -0.738588     -0.507846     -0.407139
Ti       1.85362     13.17806     10.71895         0.032666      1.297839     -0.246383
Ti      13.25366      1.78838     10.81083         0.242326      0.644247     -0.529497
Ti      13.20110     13.24796     10.81814        -0.346028      0.506245     -0.570645
Ti       1.87533      5.73686      2.25670         0.062781     -0.495414      0.964956
Ti       1.90314      5.65177     15.00970        -0.428907      0.569793     -0.470209
Ti      13.31911      5.70248      2.19004        -0.084400      0.805872      0.024410
Ti      13.32256      5.70223     15.01246         0.917144     -0.186997      1.642487
Ti       1.88237      5.69247      6.56402         0.025557     -0.421561     -1.138460
Ti      13.26597      5.70478      6.61710         0.916852     -0.388780     -0.994926
Ti       1.83626      5.63023     10.79855         1.431504      0.828738     -0.932625
Ti      13.27713      5.61766     10.77562         0.413839     -0.218861     -0.282121
Ti       1.86042      9.50796      2.23886         0.478887      0.586772     -0.845055
Ti       2.02164      9.54141     14.95539        -0.989238     -0.150302      1.174997
Ti      13.34490      9.55491      2.08757        -0.554686     -1.288857      0.908600
Ti      13.40538      9.47382     14.98895        -1.600761      0.305575     -1.213620
Ti       1.84707      9.49566      6.53009         0.476177      0.180649      0.326602
Ti      13.26520      9.51763      6.56973        -0.865235      0.033950      0.608354
Ti       1.88612      9.51742     10.64191        -0.490133     -1.337949      0.135637
Ti      13.23601      9.46830     10.63930        -0.319320     -0.047232      1.542346
Ti       5.68360      1.83336      2.36971        -0.154710      0.462016      0.274189
Ti       5.71532      1.86510     14.99606        -0.122537     -0.839682     -1.114661
Ti       5.61270     13.29966      2.37132        -0.318861     -0.244464     -1.269649
Ti       5.66889     13.22807     14.97413         1.151557      0.265453      0.014936
Ti       5.67552      1.88700      6.61137         0.811216     -0.562899     -1.060342
Ti       5.55739     13.28674      6.44057         0.676663      0.082363      0.295745
Ti       5.71475      1.78592     10.67820         0.462702      0.602739      0.968744
Ti       5.71075     13.19922     10.72701        -1.070094      0.586695     -0.400408
Ti       5.72747      5.77880      2.37549         0.089055     -1.344828      1.053110
Ti       5.65744      5.60421     15.03989        -0.424966      1.358829     -0.745520
Ti       5.65741      5.65080      6.38298         0.243705      1.195569      0.943774
Ti       5.72858      5.67750     10.61081        -0.820235     -1.229020      0.023466
Ti       5.69869      9.48012      2.33863        -0.286450      1.079497     -0.172549
Ti       5.69231      9.51233     15.04371         0.104118     -0.085648     -0.149459
Ti       5.72137      9.47371      6.47535        -0.646486     -0.160993     -0.096777
Ti       5.67651      9.42839     10.73714        -1.038615     -0.212961     -1.113714
Ti       9.47986      1.86275      2.18997         0.881996      0.775114      0.227967
Ti       9.50738      1.90591     15.02780         0.206594     -0.880285     -0.820315
Ti       9.42920     13.32566      2.19915        -0.214843     -0.715544      0.724265
Ti       9.39612     13.28058     14.95215         0.502072     -0.806522     -0.163075
Ti       9.54453      1.91658      6.48090        -0.449758     -0.991128     -0.395871
Ti       9.46585     13.28312      6.39877        -0.348690      0.211643     -0.559602
Ti       9.54704      1.92194     10.75240        -0.244401     -1.036957     -0.405091
Ti       9.34989     13.27126     10.73860         2.256227      0.178235      1.623714
Ti       9.54655      5.68716      2.31252         0.550504      0.062581      0.401765
Ti       9.51642      5.65014     15.07285        -0.255664     -0.570386      0.395320
Ti       9.50796      5.68505      6.43255        -0.518905      0.911004     -1.264039
Ti       9.47587      5.62936     10.67472        -0.181607      0.502928      0.132677
Ti       9.50864      9.49846      2.14700         0.245558     -0.415358     -0.018756
Ti       9.49829      9.42080     15.00755         1.042007      0.534293      0.902016
Ti       9.45594      9.55837      6.54012         0.450638     -0.376655     -0.376328
Ti       9.47904      9.44848     10.75440         0.197635      0.966068      0.644334
O       2.00973      1.68565      0.42653        -0.239578      0.725786      1.212789
O       1.93902      1.67313     13.18756         0.020143      0.779197     -1.171498
O       1.71324     13.39326      0.65344         0.372339     -0.228375     -0.691694
O       1.83982     13.23123     13.28407         0.416916     -0.085715     -1.120616
O      13.36004      1.76523      0.36062        -0.293289      0.033252      0.301329
O      13.36980      1.88236     13.23925        -0.253626      0.141139     -0.282979
O      13.14610     13.23063      0.41970         0.186577      0.606412      0.080803
O      13.24443     13.26988     13.23830         0.158034     -0.405026     -0.531079
O       1.95237      1.86110      4.85077         0.038996      0.016473      0.172122
O       1.65455     13.29383      4.77456         0.759978     -0.275962     -0.778600
O      13.36337      1.87857      4.81445        -0.193651      0.138468     -1.296602
O      13.18084     13.18386      4.82139         0.037315      0.245330     -0.542382
O       1.86361      1.87049      8.97408        -0.085019      0.024188     -0.260682
O       1.69257     13.23816      8.91600         0.587615     -0.165702      0.386868
O      13.33804      1.87212      9.03954        -0.422386     -0.057141     -0.837370
O      13.26662     13.31181      8.98597        -0.112627      0.073810      0.069610
O       1.91329      5.69211      0.52519         0.126599      0.084570     -1.038718
O       2.01111      5.63174     13.20811        -0.345645      0.229903      0.067214
O      13.33246      5.67029      0.43371        -0.140746      0.173592     -0.124763
O      13.39662      5.60254     13.26692        -0.167556      0.148683     -1.212043
O       1.93674      5.58851      4.74855        -0.245513      0.476700      0.460901
O      13.38842      5.81298      4.90043         0.087928     -0.248777     -1.351373
O       1.79218      5.70341      9.02241         0.293603     -0.177131     -0.098726
O      13.31279      5.62033      8.99983        -0.143819     -0.193280     -0.207468
O       1.83489      9.59086      0.45620         0.639628     -0.450012     -0.295090
O       2.04047      9.69013     13.21276        -0.579290     -0.516217     -0.359785
O      13.41063      9.40549      0.38755        -0.421185      0.281678     -1.469057
O      13.35536      9.58378     13.11976         0.169489     -0.396423      1.101848
O       1.83053      9.44706      4.73603         0.102511      0.101498      0.030311
O      13.15872      9.40281      4.82422         0.676089      0.533789     -0.361469
O       1.97206      9.43007      8.88984        -0.059442      0.325897     -0.869515
O      13.08485      9.54366      8.90260         0.235065     -0.120295     -0.584666
O       5.79906      1.92250      0.62249        -0.282965     -0.533739     -1.432632
O       5.66893      1.89943     13.21273         0.052175      0.074893      0.289534
O       5.64195     13.35586      0.53340         0.224106      0.048724      0.527126
O       5.69282     13.12594     13.22228        -0.105660      0.125291     -0.721325
O       5.64441      1.83449      4.83191        -0.022966      0.254335     -0.656960
O       5.63111     13.24331      4.69163        -0.081754     -0.169833     -0.405289
O       5.81470      1.69862      8.93686        -0.115837      0.449732     -0.436185
O       5.67379     13.27753      8.92480        -0.015631     -0.151034      0.231103
O       5.76515      5.58937      0.64970        -0.597274      0.237805     -2.169774
O       5.38802      5.72447     13.26257         1.256594     -0.417107      0.370043
O       5.69183      5.68094      4.62821         0.019185      0.073164     -0.917488
O       5.72074      5.63711      8.86680         0.257424      0.084551     -0.300863
O       5.65073      9.38807      0.53532        -0.130874      0.144964     -0.650435
O       5.47272      9.55624     13.27110         0.914269     -0.449184     -0.442659
O       5.83753      9.40897      4.69502        -0.222377      0.279962     -0.881320
O       5.52532      9.41285      8.99035         0.826728      0.268674     -0.677919
O       9.39296      1.94700      0.44746         0.071569     -0.171928     -0.864613
O       9.52039      1.92441     13.24291        -0.013591      0.162727      0.004426
O       9.43729     13.17000      0.42753         0.128440      0.304358     -0.427796
O       9.41048     13.33224     13.19701        -0.050356     -0.073971     -0.072625
O       9.62287      1.78396      4.71641        -0.334669      0.447682     -0.899606
O       9.46582     13.31054      4.62989         0.025640     -0.097004     -0.324465
O       9.64977      1.90846      8.94774        -0.433733      0.149339     -0.096431
O       9.47331     13.24350      9.00245        -0.276521      0.130789     -1.395741
O       9.64240      5.55597      0.57818         0.008124      0.054323     -2.027839
O       9.48617      5.62287     13.31964        -0.070015      0.324271     -0.995270
O       9.57013      5.89653      4.66858        -0.279270     -0.640143      0.253138
O       9.54318      5.59228      8.89737        -0.290415      0.204146     -0.317576
O       9.63427      9.53590      0.36777        -0.552724     -0.269412      0.340129
O       9.47069      9.29712     13.28136        -0.427362     -0.117721     -1.584770
O       9.48107      9.44333      4.77072        -0.402416      0.007764     -0.882669
O       9.42262      9.61301      9.00388         0.117422     -0.470705     -0.258762
O       3.77997      1.81228      2.70137        -0.195481     -0.069210     -0.276085
O       3.79916      1.74862     15.36374         1.288350      0.502749      0.046749
O       3.71196     13.32204      2.63029        -0.392327     -0.109715      0.438066
O       3.91080     13.38509     15.42852        -1.540645     -0.098403      0.168516
O       0.01032      1.79109      2.45934        -0.300671      0.134927      0.484969
O       0.03941      1.87166     15.34376         0.443619      0.038057     -0.238500
O      15.01950     13.36693      2.77280         0.441136     -0.533223     -0.425033
O       0.01217     13.24039     15.39591         0.271572     -0.198906     -0.094072
O       3.83094      1.80858      7.18461        -0.346188      0.361013     -1.123137
O       3.67055     13.29541      6.96793         1.452533     -0.460863     -0.542743
O       0.03046      1.77196      6.85426        -0.213266      0.126078      0.560238
O      15.11780     13.35882      6.80057        -0.167905     -0.303596      0.792767
O       3.82150      1.87801     11.01655         0.513773      0.042143      0.154514
O       3.74366     13.22779     11.14035         0.570104     -0.158072     -0.402320
O      15.15654      1.69221     11.08144         0.989423      0.698676      0.497618
O      15.18634     13.33758     11.07093        -0.332649     -0.281521      0.286068
O       3.77115      5.55721      2.69009         0.061957      1.057697     -0.655552
O       3.76989      5.68543     15.46302         0.499041      0.559819      0.512183
O       0.02105      5.76501      2.70730        -0.128236      0.147401     -0.127048
O       0.02687      5.63114     15.48532         0.579281     -0.540394     -0.479837
O       3.78635      5.56715      6.90997         0.113963      0.376586     -0.282541
O       0.04457      5.78816      6.96555        -0.373400     -0.413801     -0.116726
O       3.82632      5.70788     11.04300        -0.747978     -0.581097      0.108290
O       0.03068      5.62590     11.17119        -1.231182     -0.340755      0.228783
O       3.78350      9.56389      2.72467        -0.037382     -0.555371     -0.068855
O       3.85096      9.41632     15.44152        -0.800836     -0.178193      0.279272
O      15.18831      9.58074      2.45216        -0.467710     -0.141090      0.939636
O       0.03495      9.75106     15.29327         0.925894     -0.375970     -0.250547
O       3.85464      9.48865      6.81596        -1.129065      0.052635     -0.086755
O      15.16497      9.53038      6.96828        -0.391682     -0.506770     -0.498446
O       3.74091      9.52230     10.98007         0.570867     -0.184790      0.728250
O      15.13656      9.61481     10.86426        -0.254658      0.122534      0.380358
O       7.66096      1.81295      2.64908        -0.742756      0.369550      0.157238
O       7.62195      2.02067     15.22044        -0.729213      0.035161      0.694283
O       7.57908     13.25380      2.58790         0.395859      0.337210      0.130103
O       7.52887     13.16540     15.35186         0.855431     -0.109488      0.516304
O       7.59871      1.84258      6.83707         0.123398      0.255512      0.231835
O       7.51865     13.24013      6.82125         0.086830      0.349464     -0.071142
O       7.64280      1.85265     11.19710        -0.629990      0.296108     -0.284155
O       7.55261     13.32854     11.08809        -0.695593     -0.218379      0.193877
O       7.67932      5.69451      2.54340        -1.312437     -0.297503      0.729234
O       7.58506      5.57686     15.41823         0.036789      0.200276     -0.360987
O       7.59967      5.74139      6.73423        -0.404638     -0.503098      0.313464
O       7.59687      5.74699     11.11492        -0.125744     -0.335308      0.135517
O       7.58638      9.49196      2.49466         0.574498     -0.003000      0.411240
O       7.58143      9.47035     15.41378        -0.405064     -0.340267     -0.141669
O       7.57990      9.40872      6.94468        -0.510775      0.799859      0.023872
O       7.50755      9.37664     11.22661         0.876483     -0.171951     -0.130572
O      11.44945      1.94146      2.46166         0.018819     -0.124146      0.318094
O      11.42947      1.76264     15.33347        -0.114508      0.239513      0.212498
O      11.34117     13.38871      2.63145        -0.011211     -0.807307     -0.180069
O      11.36842     13.20676     15.23215        -1.028218      0.432413      0.668579
O      11.37716      2.03521      6.78391         0.647329     -0.200085      0.598744
O      11.29249     13.20904      6.83649         0.206064      0.372692      0.404669
O      11.38626      1.96828     11.19264         0.023668      0.069873      0.186803
O      11.27781     13.29096     11.14769         0.885377      0.058459      0.154988
O      11.50528      5.66737      2.67769        -0.315294      0.042097     -0.037685
O      11.47041      5.62515     15.33305        -0.447539      0.512737      0.070541
O      11.38437      5.63319      6.81756        -0.666843      0.139882      0.480246
O      11.37233      5.67924     11.11441         0.364734     -0.254648      0.013660
O      11.42313      9.54196      2.56073        -0.440596     -0.093253     -0.164550
O      11.41260      9.38561     15.24835         0.544615     -0.207353      0.295480
O      11.30249      9.55668      6.87153         0.709226     -0.563943      0.271211
O      11.32849      9.31252     11.21339         0.466106      0.482366     -0.469669
O       1.77935      3.78324      2.56067         0.472217     -0.550180     -0.025445
O       2.03195      3.80220     15.31743        -0.297090     -1.199791      0.090022
O       1.78770     15.17566      2.68613         0.526514      1.184574      0.430067
O       1.96076     15.13056     15.26788        -0.413195      0.635316      0.557922
O      13.46038      3.82023      2.53498        -0.569461     -1.140372     -0.048772
O      13.32288      3.74714     15.51839        -0.000437      0.083491     -0.807660
O      13.23973     15.17454      2.68416         0.173724      0.562147     -0.533940
O      13.26485     15.10196     15.30887         0.231057      0.975239      0.343745
O       1.84040      3.76908      6.96120         0.301835      0.042779      0.055594
O       1.93216     15.14114      6.88141        -0.011802      0.659170      0.394992
O      13.41926      3.80284      6.85356        -0.155499     -0.204063      0.424776
O      13.17020      0.01818      6.86047        -0.136686     -0.162416      0.402217
O       1.85898      3.72826     11.17875         0.164040      0.060131     -0.091063
O       1.98789     15.17202     11.03472        -0.207329     -0.717659      0.313949
O      13.34862      3.71808     11.17991         0.024228      0.833387      0.108625
O      13.21717     15.14539     11.12287        -0.241462     -0.120630      0.428967
O       1.81643      7.66829      2.55024         0.711300     -1.291347      0.514831
O       1.75019      7.64869     15.19305         0.642560     -0.020871      0.193930
O      13.33154      7.65297      2.57916         0.013574     -0.025835      0.099362
O      13.56338      7.58102     15.29443        -0.656335      0.109424     -0.253649
O       2.01140      7.58799      6.78252        -0.416243      0.007743      0.119305
O      13.24451      7.54362      6.99222        -0.216560      1.771830      0.192339
O       1.72869      7.63880     11.03137         0.599380     -0.506011      0.577363
O      13.41916      7.52850     10.88449        -0.285596      0.264930      0.826384
O       1.87054     11.30265      2.68816        -0.433428      2.410620      0.368195
O       2.07736     11.46758     15.51682         0.079762     -1.142371     -0.185445
O      13.23164     11.43485      2.47090         0.033923     -0.022357      0.530342
O      13.16242     11.35931     15.39196         0.395914     -0.483852      0.061050
O       1.87017     11.36691      6.83655         0.010563     -0.093276      0.103632
O      13.19402     11.45717      6.96460         0.502109     -1.471208     -0.156956
O       1.87853     11.35626     11.14350        -0.069342      0.347355     -0.350318
O      13.11789     11.42039     11.01911         0.322978     -1.370379      0.215497
O       5.68049      3.70036      2.64830         0.390458      0.490685      0.403803
O       5.58825      3.78737     15.37808         0.073913     -0.709576      0.245602
O       5.75339     15.11941      2.75987        -0.313868      1.522962     -0.128098
O       5.87044     15.16428     15.25732        -0.205559      0.796139      0.492925
O       5.73140      3.83691      6.78290        -0.088820     -1.234736      0.446449
O       5.68995     15.18526      6.69107        -0.233027     -0.900950      0.877594
O       5.76860      3.71947     11.04392        -0.221975      0.535934      0.093351
O       5.65648     15.07713     11.08266         0.055782      1.057740      0.287480
O       5.64940      7.61780      2.49398        -0.179951     -0.772432      0.687693
O       5.71308      7.54752     15.37664        -0.053083     -0.125717      0.293203
O       5.73181      7.58174      6.72033        -0.364811     -0.675267      0.466203
O       5.60920      7.50802     10.95230         0.360721      0.929886      0.926092
O       5.63928     11.41561      2.53295         0.226719     -0.719863      0.586025
O       5.60755     11.34360     15.50842         0.258162     -0.078560     -0.251222
O       5.68404     11.36717      6.78449        -0.110191      0.326069      0.344021
O       5.70609     11.32348     11.04760         0.178399      0.177157      0.150437
O       9.59202      3.77662      2.67022        -0.556615     -0.625233      0.205963
O       9.69954      3.71748     15.38535        -0.555417      1.199335      0.123447
O       9.60067      0.00029      2.40606        -0.515673     -0.014371      0.404481
O       9.41797     15.12931     15.31928        -0.097417      0.675936      0.524794
O       9.39006      3.79457      6.72850         0.326515      0.507722      0.120716
O       9.47728     15.16138      6.71286         0.148904      0.356929      0.855347
O       9.46475      3.83244     11.04850        -0.122654     -0.400992      0.580951
O       9.55540      0.04957     11.11232        -0.433384     -0.497152     -0.021710
O       9.52071      7.58105      2.41207         0.308974      1.180823      0.459014
O       9.57363      7.50761     15.39066        -0.868879     -0.464761      0.211442
O       9.30110      7.60740      6.84841         1.583239     -0.455693      0.291426
O       9.46938      7.54320     11.01271        -0.210960     -0.321977      0.527270
O       9.48635     11.39649      2.59767         0.128232     -0.169258     -0.145851
O       9.47859     11.27991     15.32823         0.016440      1.110702      0.001792
O       9.36628     11.41579      6.76068        -0.094137     -0.214145      0.405298
O       9.44711     11.40383     11.19206        -0.315867     -1.228713     -0.114433
