  # total energy = -7882.30159908 
CRSYTAL
PRIMVEC
    15.3600000000000000    0.0000000000000000    0.0000000000000000
     0.0000000000000000   15.3600000000000000    0.0000000000000000
     0.0000000000000000    0.0000000000000000    17.440000000000000
PRESSURE
0.836019 0.424032 -1.44032 0.271437 0.295429 -0.027183
PRIMCOORD
320 1
Pb       3.74317      3.83955      4.31164         1.066951     -0.345057     -0.030097
Pb       3.82575      3.83481     17.36392         0.130785      0.264309      0.375010
Pb       3.81413      0.02422      4.26575         0.017694      0.088625     -0.379003
Pb       3.73266      0.05182      0.02994         0.358260      0.173169     -0.376718
Pb      15.34752      3.76420      4.37015        -0.322121     -0.019431     -0.316270
Pb       0.02243      3.93656     17.38230        -0.118878     -0.330133      0.699809
Pb      15.31032     15.28545      4.30178         0.044709      0.135400     -0.239478
Pb      15.25676     15.28586      0.00824        -0.079158      0.238286     -0.145977
Pb       3.78489      3.74278      8.76088         0.117632      0.412117     -0.221965
Pb       3.88540     15.33803      8.66860        -0.139793     -0.133822     -0.126497
Pb      15.34149      3.77333      8.70035        -0.478838      0.389448     -0.573802
Pb      15.30793      0.04371      8.66325        -0.094024     -0.393442     -0.416784
Pb       3.65101      3.80090     13.03208         0.098320      0.418524      0.668999
Pb       3.74003     15.25847     13.05162         0.802284      0.088121      0.404758
Pb      15.33554      3.80565     13.04530         0.052689      0.121428     -0.061509
Pb       0.04531      0.01182     13.01290        -0.607242      0.105675      0.497674
Pb       3.82757      7.62971      4.28276         0.293518      0.171782      0.776460
Pb       3.76585      7.63445     17.35732         0.324924     -0.466219      0.397277
Pb       0.00984      7.71615      4.38383         0.066525     -0.116417     -0.154833
Pb      15.15538      7.70350     17.32648         1.111542      0.081607      0.382941
Pb       3.93070      7.63486      8.76398        -0.342544     -0.117697     -0.301742
Pb       0.07165      7.60609      8.70504        -0.185372      0.105854     -0.024209
Pb       3.76895      7.63775     12.98908        -0.123423      0.121250     -0.113303
Pb       0.04648      7.63366     13.05598         0.124903      0.455604     -0.708129
Pb       3.75940     11.54112      4.22418         0.213452      0.295360      0.235900
Pb       3.94295     11.51303     17.42532        -0.167640      0.284947      0.051607
Pb      15.28466     11.57211      4.33265         0.822143     -0.333692      0.061148
Pb      15.30179     11.56475     17.33831         0.319501     -0.621891      0.043144
Pb       3.79502     11.54802      8.61834        -0.002946     -0.244045      0.472694
Pb      15.26481     11.38887      8.64685         0.523983      0.238603      0.293421
Pb       3.81663     11.53592     13.14332        -0.174281     -0.168480     -0.438310
Pb      15.35517     11.53481     13.13986         0.173894     -0.345991     -0.236083
Pb       7.71082      3.74911      4.42660        -0.481733      0.276357     -0.592967
Pb       7.64579      3.90897     17.34012        -0.320643      0.044547      0.166827
Pb       7.73555      0.09297      4.27046        -0.304287     -0.450215      0.225298
Pb       7.69567      0.04019     17.38076        -0.044833     -0.202469     -0.051844
Pb       7.72390      3.68452      8.76295        -0.308131      0.695912     -0.080380
Pb       7.62466     15.18324      8.63036         0.279941      0.321784      0.086569
Pb       7.71340      3.82538     13.19684        -0.005983     -0.539553     -0.300651
Pb       7.56573      0.04321     13.11118         0.813618     -0.441895     -0.041132
Pb       7.64104      7.60368      4.30622        -0.147108      0.348052     -0.043857
Pb       7.71689      7.67977     17.40343        -0.123315      0.034319     -0.201600
Pb       7.57435      7.69768      8.66531         0.238899      0.063010     -0.334201
Pb       7.51681      7.64055     12.99106         0.101258      0.170812      0.372082
Pb       7.67037     11.53879      4.33629         0.238080      0.067294     -0.089865
Pb       7.76850     11.50388      0.08147        -0.305052     -0.288373     -0.633312
Pb       7.48146     11.47089      8.62395         0.798596     -0.063495     -0.573792
Pb       7.64127     11.39901     13.09514         0.673562      0.349047      0.025669
Pb      11.43795      3.81012      4.35386         0.097323     -0.208081     -0.034373
Pb      11.65652      3.84099     17.36704        -0.399507      0.004477      0.282523
Pb      11.39363     15.31600      4.27780         0.132313      0.452990      0.265079
Pb      11.54855     15.32694     17.39874        -0.385022     -0.107605     -0.240328
Pb      11.41158      3.84428      8.71780         0.614126      0.042463     -0.154271
Pb      11.52221     15.24667      8.65417        -0.111151      0.127853     -0.009975
Pb      11.56687      3.79637     13.10369         0.036246     -0.449671     -0.257690
Pb      11.60529     15.35148     12.91046        -0.708675     -0.199308      0.979519
Pb      11.41335      7.77971      4.29457         0.600446     -0.561744      0.402039
Pb      11.59378      7.59792     17.39812        -0.575261     -0.026168     -0.168025
Pb      11.41586      7.61719      8.71941         0.396484      0.343742      0.093965
Pb      11.49394      7.71680     12.92513        -0.024690      0.085171      0.348922
Pb      11.54054     11.46736      4.40230        -0.527315     -0.198075     -0.302291
Pb      11.50769     11.47814     17.42877         0.105206      0.093433     -0.532783
Pb      11.57204     11.52867      8.67189        -0.173834     -0.333514     -0.064944
Pb      11.49083     11.44760     12.99004        -0.209080      0.280613     -0.131345
Ti       1.88273      1.94732      2.24693         0.913995     -0.641649     -0.439785
Ti       1.81193      1.95179     15.46006         0.767746      0.140785     -0.301987
Ti       1.87184     13.43420      2.24965         0.631149      0.208397      1.842372
Ti       2.00232     13.46369     15.39318        -0.646195     -0.166823      0.144549
Ti      13.42273      1.86788      2.28469        -0.601658     -0.061807     -1.011973
Ti      13.40329      1.87805     15.41167        -0.208709     -0.731902      0.502412
Ti      13.29886     13.38039      2.31347         1.176146      0.397131      0.864683
Ti      13.45881     13.36507     15.35941        -0.574279      0.804791     -0.332114
Ti       1.83587      1.84149      6.62209         0.326494      0.189812     -0.432627
Ti       1.89745     13.37730      6.66564        -0.327599      0.388312      0.847645
Ti      13.34990      1.85948      6.64684         0.388389      0.721778     -0.899294
Ti      13.47683     13.38726      6.53122        -0.356256      0.685259      1.349864
Ti       1.88098      1.88232     11.02065        -0.363706      0.869069      0.795524
Ti       1.88314     13.47310     11.00688         1.048852     -0.558924      0.494544
Ti      13.40965      1.93082     10.98863         0.184534      0.446575     -0.235727
Ti      13.51218     13.40413     11.04744        -1.457062     -0.411825     -0.398895
Ti       1.91632      5.71340      2.34331        -0.434958      0.575826     -0.602747
Ti       1.84188      5.78286     15.38086         1.586869     -0.223120      0.868586
Ti      13.40143      5.71448      2.41602        -0.256312      0.431988     -0.934784
Ti      13.42932      5.69455     15.26036        -0.283935      0.555298      0.414105
Ti       1.93404      5.72018      6.59173        -0.100399      0.055647      0.574109
Ti      13.42271      5.79608      6.67236        -0.057194     -0.704527      0.757615
Ti       1.91004      5.71495     11.02197        -0.155655      0.836428      0.708744
Ti      13.39962      5.72241     11.11276         1.054369      0.254342     -2.026469
Ti       2.02651      9.53721      2.30352        -0.996673      0.784819     -0.732608
Ti       2.04700      9.59693     15.39616        -1.828162     -0.290475     -1.144849
Ti      13.57159      9.53311      2.31831        -0.471945      0.345104     -0.005945
Ti      13.44643      9.54068     15.30162         0.405554      0.552326     -0.454384
Ti       2.00977      9.55374      6.68394        -0.974463     -0.265138      0.244141
Ti      13.46028      9.55578      6.65237        -0.039038     -0.224429      0.911822
Ti       1.91558      9.70116     11.10473         0.055530     -0.564780     -0.314830
Ti      13.40987      9.59894     11.02652         0.910027      0.203782     -0.879013
Ti       5.73138      1.92886      2.26989        -0.204800      0.881600      1.105240
Ti       5.74645      1.88683     15.29137        -0.804843     -0.198917      1.389461
Ti       5.74228     13.45140      2.25710        -0.582989      0.427993     -0.092563
Ti       5.79584     13.40250     15.39053         0.027316      0.087933      2.502188
Ti       5.67752      1.95525      6.67099         0.675122     -0.318392     -0.113787
Ti       5.70366     13.45659      6.57252         0.800656     -0.081286     -0.310416
Ti       5.70448      1.93595     11.20485         0.036379     -1.121330     -0.454594
Ti       5.82945     13.32965     11.10716        -0.760392      1.714058     -0.237617
Ti       5.71124      5.77820      2.33117         1.562897     -0.872164     -1.201866
Ti       5.74721      5.71141     15.29663        -0.690934      0.739214      0.518583
Ti       5.66855      5.73262      6.77058         0.760803      0.084440     -0.312769
Ti       5.81255      5.60106     11.10797        -2.379333      1.306953     -1.610150
Ti       5.74824      9.61302      2.28600         1.179896     -0.129766     -0.392434
Ti       5.77988      9.55004     15.41227         0.657283     -0.012761      0.554407
Ti       5.69836      9.64694      6.50758         0.987777     -0.340915      0.769365
Ti       5.75690      9.56789     10.97681        -1.921811     -0.316873     -0.816417
Ti       9.54163      1.95247      2.25232         1.017837     -0.073481      1.047752
Ti       9.56537      1.94629     15.39010         1.232531     -1.718576     -1.339296
Ti       9.54140     13.44901      2.23764         0.082675      0.340561      1.457887
Ti       9.54164     13.41258     15.38797         1.386927      0.018577      1.002594
Ti       9.53536      1.84506      6.79382         0.641157      0.525324     -1.057689
Ti       9.62001     13.32321      6.61433        -0.049186      0.616723     -0.899979
Ti       9.57831      1.92142     11.11255         0.648116     -1.074558     -0.223881
Ti       9.58809     13.40078     11.05754         0.142360     -0.187606     -0.926952
Ti       9.54234      5.78468      2.29159         0.459550     -0.933695     -0.351190
Ti       9.60436      5.74842     15.26993         0.144593      0.964727      1.200859
Ti       9.54323      5.77140      6.71673         0.254023     -0.239945      2.313478
Ti       9.55460      5.70763     11.08597         0.494959      0.829088     -1.071426
Ti       9.65006      9.63350      2.38179        -0.546134      0.448708     -0.040054
Ti       9.63383      9.59856     15.37391         0.041456     -0.350772     -0.219302
Ti       9.60655      9.55495      6.59971         0.320472      0.367400     -1.127440
Ti       9.50466      9.53061     10.92919         0.831065      1.326993     -0.998891
O       1.93591      1.94125      0.46383         0.080875     -0.168657      0.123172
O       1.79913      2.17891     13.66287         0.064333     -0.960592      1.046443
O       1.92406     13.54262      0.54704         0.044046     -0.149221     -1.958713
O       1.96393     13.47135     13.62631        -0.115888      0.184878      0.445062
O      13.32520      1.83435      0.43237         0.178824      0.354177      1.896560
O      13.45864      2.00112     13.65136        -0.150261     -0.370736      0.084132
O      13.47478     13.31764      0.56561        -0.064546      0.044208      0.095192
O      13.58630     13.49695     13.57948        -0.300772     -0.266288      0.569345
O       1.77527      1.89432      4.82637         0.142281      0.116335      0.832465
O       1.87045     13.32025      4.92408         0.153735      0.249917     -0.021082
O      13.46730      1.87827      4.80869         0.162835     -0.005589      0.986438
O      13.48820     13.48649      4.76475        -0.094033     -0.181105     -0.039760
O       1.81560      1.84856      9.28661         0.505639     -0.010953     -0.635537
O       1.99425     13.41685      9.25026        -0.224302      0.306216      0.755540
O      13.45206      1.96881      9.22029        -0.047054     -0.197693      0.163248
O      13.37121     13.31880      9.23903         0.286402      0.364028      1.681542
O       1.87000      5.68896      0.55550        -0.008737      0.405421      1.121318
O       1.89235      5.73806     13.62886        -0.113908     -0.097206     -0.110349
O      13.30898      5.80893      0.55281         0.347794     -0.283391      1.277296
O      13.41951      5.67003     13.50996         0.053071      0.366313      0.506472
O       2.07337      5.76141      4.79832        -0.523831     -0.288511      0.729905
O      13.40102      5.82085      4.89745         0.072941     -0.270457      0.713706
O       2.06067      5.74390      9.28016        -0.562294     -0.219336     -0.054122
O      13.41208      5.71694      9.26371         0.111013     -0.013953      1.576114
O       1.95337      9.48867      0.51653         0.102591      0.096235      1.014643
O       1.98552      9.51983     13.51795         0.169761      0.364463      2.208749
O      13.57158      9.62841      0.49463        -0.185684     -0.409593      1.399307
O      13.44012      9.51536     13.48068        -0.071070      0.305939      1.366603
O       2.01437      9.50221      4.94886        -0.151943      0.397717     -0.287936
O      13.48170      9.46533      4.90079        -0.024473      0.211809      0.121167
O       1.84893      9.77967      9.33299         0.396638     -0.324929     -0.105691
O      13.49328      9.74317      9.19539         0.116055     -0.202339      1.055104
O       5.74161      1.98657      0.52146         0.227438     -0.144433     -0.372552
O       5.91176      1.86455     13.52392        -0.452886      0.484028      0.820549
O       5.59449     13.49336      0.48002         0.338090      0.122193      0.591496
O       5.88615     13.33251     13.69818         0.014406     -0.123935     -1.817627
O       5.79773      1.89040      4.92129         0.179269      0.273330      0.330077
O       5.79555     13.37165      4.82121        -0.512096      0.237281      0.248782
O       5.48026      1.95336      9.45115         0.905713     -0.217002     -0.240428
O       5.81092     13.55480      9.31685         0.083233     -0.703437      0.661439
O       5.76516      5.78248      0.53490         0.337814     -0.084584      0.454774
O       5.79859      5.73166     13.51366         0.209070     -0.124404      0.309962
O       5.65372      5.70857      4.99998         0.478917      0.131817      0.496007
O       5.52811      5.64517      9.26353         0.515433      0.256530      1.152457
O       5.93016      9.44253      0.47337        -0.627153      0.416966      1.284761
O       5.69057      9.63752     13.65117         0.283818     -0.096437      0.111293
O       5.76350      9.71066      4.76699         0.047923     -0.072640     -0.302114
O       5.83057      9.67646      9.13240        -0.363837     -0.386023      1.890929
O       9.49423      1.91204      0.52906         0.017296      0.361495     -0.882865
O       9.70939      1.90657     13.55402        -0.504377     -0.069188      1.132397
O       9.66024     13.51377      0.52471        -0.316411     -0.541499     -1.016066
O       9.53298     13.24585     13.65948         0.145338      0.290372     -0.495855
O       9.62452      1.94963      4.98079        -0.522266     -0.040258      0.744501
O       9.75734     13.51978      4.79706        -0.516914     -0.555370      1.789748
O       9.66428      1.88136      9.33430        -0.441905      0.272472      0.101326
O       9.52943     13.30945      9.21914         0.149744      0.300436      1.151240
O       9.69955      5.75264      0.51376        -0.377117     -0.231696      0.570463
O       9.56926      5.95841     13.53279        -0.137186     -0.447139     -0.486804
O       9.72136      5.78846      5.02439        -0.501911     -0.354466     -1.707869
O       9.66092      5.79963      9.28880        -0.156749     -0.197025      1.672666
O       9.66167      9.58682      0.58992        -0.214631      0.222653      0.519970
O       9.68990      9.59658     13.57378        -0.294025     -0.137726      0.785356
O       9.78386      9.63949      4.69892        -0.721638     -0.202382      1.531088
O       9.57784      9.51679      9.13834        -0.558749      0.246240      0.562300
O       3.87548      1.91860      2.75254        -0.185308      0.150380     -0.164626
O       3.77055      2.04270     15.84370         0.728057     -0.700857     -0.849882
O       3.77260     13.48763      2.75772         0.812638      0.061719     -0.084697
O       3.90706     13.41465     15.68706        -0.883133     -0.245046      0.248234
O       0.05240      1.92569      2.47214        -1.393121      0.198147      0.727231
O      15.28937      1.81212     15.94126         0.238963      0.485047     -0.607604
O       0.04735     13.40050      2.81779        -0.280560      0.125709     -0.637367
O       0.00116     13.43828     15.84111         0.332654     -0.007063     -0.144048
O       3.80646      1.87444      6.98535        -0.313586      0.020821      0.244049
O       3.85916     13.42060      7.10907        -0.197313      0.383233     -0.348881
O      15.31858      1.89303      7.08970         0.216623     -0.340319     -0.014425
O      15.28293     13.51925      7.07757         0.895288     -0.386464     -0.399421
O       3.82532      2.09185     11.49112        -0.391114     -0.792864      0.084890
O       3.88855     13.47629     11.54559         0.128521     -0.105722     -0.304078
O      15.34355      1.84308     11.32691        -0.117446      0.025352      0.466777
O       0.02375     13.49972     11.50533         0.104576      0.420992     -0.576934
O       3.93904      5.79235      2.67382        -2.445084      0.014222      0.317453
O       3.81709      5.76780     15.87832         0.411503     -0.211198     -0.831906
O       0.01656      5.72023      2.80617         0.019579      0.131934     -0.301588
O       0.01969      5.80676     15.79286        -1.477685     -0.478865     -0.302307
O       3.78300      5.79029      7.09273         0.458769     -0.389933      0.099986
O       0.04895      5.79297      7.08802        -0.595030     -0.341789     -0.327675
O       3.77767      5.60403     11.48273         0.371191     -0.106832      0.030420
O      15.31109      5.71322     11.51549         0.861651      0.408665     -0.335104
O       3.89517      9.56292      2.81436        -0.136237      0.091804     -0.915316
O       3.84606      9.61955     15.93120         0.724155     -0.418749     -0.637207
O       0.06677      9.56610      2.84629        -0.013894     -0.069178     -0.596348
O       0.02538      9.56025     15.78089        -0.152481     -0.062730     -0.371314
O       3.87595      9.59069      6.99502        -0.669270      0.129670      0.371982
O       0.03745      9.65822      7.05667        -0.240818     -0.411943     -0.090374
O       3.79187      9.55917     11.47690         1.466028      0.748063     -0.193172
O       0.09793      9.63933     11.44241        -1.306918      0.103189      0.385659
O       7.72248      1.99551      2.81588        -0.546175     -0.087975     -0.363619
O       7.68854      1.88760     15.81836        -0.961811      0.332297     -0.451086
O       7.64947     13.40810      2.63098        -0.374145      0.083729     -0.135201
O       7.73658     13.42029     15.94379        -1.168899      0.028167     -0.343948
O       7.66308      1.93871      7.28552        -0.356947     -0.306322     -0.578712
O       7.65874     13.31557      6.88795         0.072998      0.490385      0.652752
O       7.77297      1.87308     11.57128        -0.841289     -0.030562     -0.367815
O       7.71264     13.47895     11.57920        -0.216861     -0.485133     -0.565604
O       7.61287      5.62064      2.71614         1.304056      0.430930      0.322781
O       7.70432      5.74224     15.71392         0.088812     -0.349393     -0.045353
O       7.68853      5.78466      7.33248        -0.788273     -0.153716     -1.002375
O       7.61332      5.93274     11.29892         1.526111     -0.343636      0.317205
O       7.73523      9.77542      2.81076        -0.605931     -0.538207     -0.597083
O       7.71002      9.63219     15.81648         0.127953     -0.339929     -0.365169
O       7.72044      9.60928      6.86604        -0.873877      0.120614      0.264540
O       7.55115      9.47430     11.31683         1.120241      0.056520      0.391137
O      11.46344      1.86020      2.73939         0.741216      0.125028     -0.444392
O      11.48739      1.81790     15.87909         0.078931      0.802014     -0.472484
O      11.47114     13.55534      2.65855         1.139399     -0.513324     -0.210574
O      11.56981     13.32102     15.87844        -0.496147      0.193038     -0.513784
O      11.50481      1.91003      7.05737        -0.288114     -0.013711      0.204207
O      11.57454     13.47643      7.07671        -0.952499     -0.415075     -0.375492
O      11.53776      1.94596     11.43368        -0.170678      0.603521      0.242091
O      11.58654     13.34749     11.48441        -0.429598     -0.231769     -0.236257
O      11.52208      5.83880      2.79663        -0.429913     -0.314263     -0.372551
O      11.51229      5.80018     15.74522         0.281640     -0.568960     -0.356619
O      11.44479      5.79328      7.34802         0.684488     -0.427885     -1.558409
O      11.56853      5.71941     11.58201        -1.589279      0.222694     -0.556645
O      11.56715      9.59645      2.75452         0.181378     -0.018426     -0.594986
O      11.59197      9.65503     15.78237        -0.366290     -0.404807     -0.151858
O      11.52419      9.66357      6.94664         0.498246     -0.374451      0.271893
O      11.53872      9.71294     11.10144        -0.072887     -0.395889      1.067623
O       1.99990      3.84024      2.69966        -0.222539      0.360350      0.157250
O       1.86500      3.85707     16.00480        -0.335259      0.038655     -1.160386
O       2.07222      0.09453      2.63274        -0.915754     -1.086263      0.146076
O       1.96458     15.35172     15.72173        -0.105878      0.345972      0.158923
O      13.44259      3.78924      2.66661        -0.148179      0.135510      0.132322
O      13.40086      3.83898     15.77358         0.203834      0.010206     -0.134560
O      13.55855     15.30050      2.67904        -0.327687      0.473303     -0.389570
O      13.34278     15.29418     15.82072         0.623530      0.121927     -0.217800
O       1.87009      3.76758      7.07617         0.138615      0.274008     -0.373109
O       1.93570     15.27313      7.09352        -0.219505      0.953363     -0.112189
O      13.45108      3.82416      7.03795        -0.042339      0.342384     -0.126559
O      13.39648     15.34202      7.12519         0.178318      0.179230     -0.305754
O       1.81406      3.79147     11.52382         0.058576      0.081516     -0.698055
O       2.00485      0.06248     11.60691        -0.392671     -0.663102     -0.879672
O      13.48975      3.86172     11.52132        -0.427644     -1.205218     -0.411454
O      13.35221      0.06531     11.47154         0.876817     -0.992619     -0.697104
O       2.00821      7.71438      2.84251        -0.414248     -1.026990     -0.777845
O       1.94747      7.62738     15.86315        -0.097698      0.830216     -0.551263
O      13.42770      7.65664      2.84201         0.585833      0.409539     -0.843114
O      13.44714      7.60220     15.69620        -0.167394      0.667075     -0.052413
O       1.92181      7.61338      7.10182         0.102305      0.718545     -0.006689
O      13.46547      7.65896      7.21036        -0.083984      0.317738     -0.573523
O       1.98257      7.67665     11.38749        -0.467247     -0.656516      0.084706
O      13.55258      7.71209     11.43570        -0.678338      0.044024     -0.240633
O       2.04097     11.51794      2.63268        -0.524731     -0.516099     -0.100201
O       1.95084     11.48506     15.74756         0.064933      0.169988     -0.050335
O      13.55018     11.44608      2.85801        -0.976617      0.462035     -0.926347
O      13.45468     11.47616     15.82960         0.444833     -0.233926     -0.563350
O       1.96965     11.52259      7.22272        -0.277717     -0.122331     -1.016128
O      13.44274     11.54991      7.00734        -0.010809     -0.489927     -0.481273
O       1.94878     11.68604     11.63018        -0.045153     -0.875606     -0.646771
O      13.53806     11.53881     11.61429         0.093036     -0.132771     -0.809113
O       5.72520      3.83055      2.80019         0.084420     -0.085662     -0.162197
O       5.71431      3.85750     15.74932         0.737243     -0.672823     -0.254224
O       5.76634      0.04792      2.75073         0.207925     -0.463898     -0.284309
O       5.68498      0.00763     15.75162         0.484116      0.508891     -0.304247
O       5.76520      3.81640      7.12364        -0.186634      0.168811      0.133870
O       5.80753      0.03266      7.07384        -0.244561     -0.698359      0.098343
O       5.90158      3.80016     11.55272         0.201695      0.163216      0.054940
O       5.81280     15.34783     11.61430        -0.466056     -0.011899     -0.452546
O       5.81887      7.73066      2.78409         0.330131     -0.371354     -0.222981
O       5.84690      7.62390     15.66611        -0.347031      0.436551      0.128895
O       5.70511      7.75968      7.06239         0.356188     -0.950098      0.096137
O       5.59120      7.58972     11.48733         0.468815      0.837216     -0.580279
O       5.65912     11.55719      2.48933         0.067952     -0.450259      0.256196
O       5.79691     11.48259     15.95824         0.011252      0.126459     -0.552078
O       5.65274     11.51680      7.03280         0.557300      0.326193     -0.053334
O       5.79634     11.47432     11.51604        -0.081582     -0.158673     -0.566471
O       9.69359      3.86987      2.81887        -0.513657     -0.144626     -0.478977
O       9.61606      3.77840     15.53637        -0.024526      1.485637      0.561002
O       9.55316     15.35355      2.71982        -0.237239      0.737343     -0.187569
O       9.59429     15.33510     15.89332        -0.089024     -0.017837     -0.577920
O       9.52516      3.83664      7.22007         0.282171     -0.176175     -0.323683
O       9.53254     15.34352      7.00885         0.106986     -0.805107      0.456287
O       9.49670      3.86620     11.50893         0.286395      0.426166     -0.221283
O       9.77677     15.25416     11.36791        -0.553665      0.582521      0.086832
O       9.37981      7.63259      2.64423         0.711152      0.805416      0.269530
O       9.66147      7.66896     15.85614        -0.195991      0.172298     -0.462996
O       9.58688      7.70205      6.98199         0.061222     -0.176181      0.348444
O       9.65470      7.75358     11.37160         0.061113     -1.431477      0.300863
O       9.67794     11.64185      2.80142         0.109443     -1.331272     -0.561868
O       9.57451     11.48570     15.83400         0.197033     -0.178696      0.239656
O       9.58003     11.45095      6.93413         0.387422      1.096915      0.074572
O       9.54768     11.39881     11.44693        -0.286088      0.712223      0.024550
