  # total energy = -7882.02854714 
CRSYTAL
PRIMVEC
    15.3600000000000000    0.0000000000000000    0.0000000000000000
     0.0000000000000000   15.3600000000000000    0.0000000000000000
     0.0000000000000000    0.0000000000000000    17.440000000000000
PRESSURE
0.491569 0.405778 -0.885153 -0.079334 -0.131232 -0.030582
PRIMCOORD
320 1
Pb       3.80204      3.85059      4.42527        -0.095853     -0.405392     -0.320234
Pb       3.97565      3.75992     17.36312        -0.875222      0.360218     -0.266921
Pb       3.78819     15.30999      4.39317         0.237271     -0.030334     -0.657754
Pb       3.90034      0.02850     17.39574        -0.941504     -0.332440     -0.419478
Pb      15.34960      3.81773      4.45169         0.022892     -0.367736     -0.754389
Pb       0.15482      3.86182      0.07156        -0.151763     -0.224505     -0.334148
Pb       0.06223     15.28835      4.33770        -0.411607     -0.017643     -0.586285
Pb      15.08710     15.28121      0.02723         0.835464      0.048867     -0.263806
Pb       3.73477      3.97747      8.56265         0.185552     -0.975823      0.828334
Pb       3.82957     15.34807      8.84955         0.037198     -0.023711     -0.752238
Pb      15.03288      3.95044      8.63479         0.976011     -0.202980     -0.335618
Pb      15.25956      0.19200      8.72114        -0.204134     -0.879057     -0.410013
Pb       3.87685      3.75263     12.93107        -0.497565     -0.186767      0.313741
Pb       3.72435     15.21566     12.92308         0.385019      0.730089      0.352239
Pb      15.35782      3.66114     13.14083        -0.010192      0.356719     -0.445410
Pb       0.03437      0.01525     12.91742        -0.425856     -0.162078      0.619251
Pb       3.94329      7.67007      4.26034        -0.773644      0.325568      0.174071
Pb       3.66609      7.62946      0.04300         0.712788     -0.407979     -0.697014
Pb       0.22801      7.70791      4.30892        -0.647770      0.019426      0.127857
Pb      15.28734      7.78470     17.34362        -0.139691     -0.335124     -0.184557
Pb       3.97274      7.62758      8.73604        -0.509008      0.481310     -0.363709
Pb      15.33927      7.63486      8.68980         0.169533      0.008284      0.147547
Pb       3.80432      7.61982     13.06639         0.027291      0.374168     -0.029600
Pb       0.08606      7.68932     13.13650        -0.339252     -0.400375     -0.431839
Pb       3.61191     11.49004      4.31474         1.166676     -0.055516     -0.195739
Pb       4.03438     11.29979     17.31569        -1.255137      0.943700      0.050417
Pb       0.17358     11.67455      4.16963        -1.242077     -0.352948      0.632389
Pb      15.23911     11.47501     17.30084         0.291094     -0.078343      0.063050
Pb       3.78038     11.60725      8.72535         0.205954     -0.424049     -0.134360
Pb      15.33639     11.33842      8.68619        -0.285514      0.714704      0.047444
Pb       3.97322     11.48487     12.96475        -0.527586     -0.263019      0.200596
Pb       0.15587     11.47450     13.16579        -0.398344      0.098912     -0.548096
Pb       7.70621      3.70939      4.42425         0.045371     -0.012030     -0.519902
Pb       7.67638      3.89560     17.31112        -0.337411     -0.108408      0.039744
Pb       7.69893      0.02712      4.36575        -0.276061     -0.405577     -0.377649
Pb       7.37817     15.31973     17.32889         1.385732      0.209297      0.300010
Pb       7.65365      3.81763      8.69794         0.085593      0.073524      0.078310
Pb       7.67481     15.25227      8.57773         0.183946      0.320814      0.743449
Pb       7.83878      4.00522     13.28825        -0.054668     -0.330932     -1.106124
Pb       7.67377      0.16530     13.02938        -0.038807     -0.169367     -0.440141
Pb       7.54240      7.48274      4.26898         0.989378      0.771694     -0.365508
Pb       7.61129      7.64895      0.00110        -0.281443      0.261756     -0.382745
Pb       7.59233      7.88471      8.63071         0.212118     -0.892977      0.360352
Pb       7.60718      7.60654     12.96331        -0.165316      0.309415      0.443706
Pb       7.70148     11.37668      4.38530        -0.209528      0.312968     -0.349759
Pb       7.52039     11.65543     17.32517         0.931317     -0.705749      0.075237
Pb       7.69638     11.48607      8.69005         0.148689      0.088289     -0.055625
Pb       7.88319     11.64689     13.06609        -0.802736     -0.703696     -0.369658
Pb      11.57837      3.75485      4.37148        -0.344144     -0.049298     -0.384341
Pb      11.57013      3.81296      0.06253         0.255794      0.079676     -0.027348
Pb      11.59258     15.33129      4.27226        -0.127525      0.106090     -0.012132
Pb      11.37947     15.27039     17.24679         0.234260      0.048151      0.498942
Pb      11.56487      4.07630      8.69602        -0.483091     -0.595061     -0.428429
Pb      11.45787     15.27640      8.64514         0.362693      0.295822     -0.222079
Pb      11.55143      3.68241     13.32265         0.098102      0.487322     -1.432578
Pb      11.43006     15.33285     13.05326         0.191074      0.236409     -0.426752
Pb      11.58021      7.68691      4.20512        -0.633966      0.156895      0.022965
Pb      11.41610      7.57984      0.02064         0.384266      0.060140      0.408759
Pb      11.56310      7.69653      8.65315        -0.218763     -0.341851      0.126695
Pb      11.38132      7.70409     13.02842         0.623861     -0.388443     -0.081804
Pb      11.57329     11.37158      4.40441         0.020397     -0.000621     -0.559759
Pb      11.34532     11.49189     17.34335         0.240204     -0.164515      0.376709
Pb      11.50721     11.52064      8.87057         0.188574      0.146559     -1.079025
Pb      11.46104     11.43161     12.96631         0.498493      0.314726     -0.094251
Ti       1.87394      1.90774      2.39186        -0.280509     -0.346099     -1.597676
Ti       1.74770      1.78861     15.48910         1.690808      0.854915     -1.238181
Ti       1.95159     13.37610      2.09936         0.189617      1.044536     -0.511525
Ti       1.87300     13.36462     15.40822         0.652189      0.438815      1.723900
Ti      13.36988      1.86551      2.21062         0.606364      0.177643      1.441563
Ti      13.37666      1.86094     15.40613         0.355748      0.465142      1.272486
Ti      13.32012     13.42891      2.22292         1.185610      0.041255      0.309526
Ti      13.34705     13.32176     15.34390         0.231379     -0.058385     -0.126305
Ti       1.87139      1.90148      6.75619        -0.138234     -0.257015      0.359618
Ti       1.86757     13.48696      6.79108        -0.506007     -0.186200      0.543859
Ti      13.31378      1.87748      6.58207         0.038714     -0.136443      0.403654
Ti      13.47883     13.37757      6.68138         0.171016     -0.181230      0.314366
Ti       1.83087      1.87500     10.94239         0.700775      0.698702     -0.344166
Ti       1.86672     13.37600     10.95827        -0.467419     -0.674875      0.275648
Ti      13.30720      1.92384     10.93469        -0.195676      0.405106      2.304277
Ti      13.40417     13.49020     11.02474         0.310305     -0.401227     -0.544477
Ti       1.94370      5.70246      2.32990         0.128218     -0.131459     -1.091319
Ti       1.90927      5.71759     15.42233         0.372278     -0.880025      0.344043
Ti      13.48772      5.70354      2.35961        -0.367752      0.188401     -0.580031
Ti      13.45711      5.72349     15.52130        -0.059936     -0.228996     -0.180591
Ti       1.95953      5.77590      6.72526        -0.919754      0.234992     -1.151623
Ti      13.40759      5.78260      6.41607        -0.220059     -0.070483      1.011156
Ti       1.84973      5.66487     11.07177        -0.848906      1.042604     -0.574675
Ti      13.33071      5.81741     11.16936         0.791040     -0.716949      1.648227
Ti       1.84529      9.54746      2.11705         1.246451      0.458379      0.248264
Ti       1.91601      9.57137     15.34174         0.239863      0.389148     -0.352515
Ti      13.46539      9.64385      2.27158        -0.762074     -0.258600     -0.531333
Ti      13.30307      9.52962     15.30269         1.359580      0.548075      1.018475
Ti       1.85096      9.60232      6.67629         0.697464     -0.153704      0.320103
Ti      13.39519      9.49321      6.67789         0.568969      1.113250     -1.051053
Ti       1.86293      9.54350     11.04593         0.861308     -0.318974      0.328466
Ti      13.45806      9.63504     11.09722         0.284013     -0.328699      0.067170
Ti       5.73218      2.00138      2.30879        -0.211211     -1.346283      0.616741
Ti       5.67998      1.88864     15.22025        -0.385392      0.623669      3.265992
Ti       5.79044     13.45105      2.34815        -0.563539     -0.054439      0.950056
Ti       5.70429     13.40086     15.26534        -0.434477      0.191822     -0.460296
Ti       5.73358      1.85589      6.76179        -0.499381      0.116984      0.474229
Ti       5.78922     13.36969      6.76629        -0.399111      0.089550     -0.915769
Ti       5.80195      1.93550     10.91178         0.023413     -0.806175      1.775182
Ti       5.80930     13.44167     11.07365        -0.153398      0.170969     -0.101240
Ti       5.72399      5.66385      2.34362         0.356988      0.717627     -0.705475
Ti       5.72608      5.78489     15.29383        -0.155475      0.476418      1.146295
Ti       5.79265      5.68724      6.57876        -0.181381      0.257766      0.900736
Ti       5.66849      5.71006     10.97993         1.389285      0.085602     -0.443878
Ti       5.71471      9.66581      2.28139         0.216438     -0.304905      0.352019
Ti       5.77189      9.53616     15.32385         0.056515     -0.972618     -1.006518
Ti       5.66941      9.62441      6.67073        -0.051301      0.494215     -0.402600
Ti       5.73494      9.56360     11.02032        -0.324613      0.502859      1.042034
Ti       9.54833      1.79487      2.08815         0.143325      1.633497      0.414524
Ti       9.51343      1.91598     15.41740        -0.304359     -1.038220     -0.419290
Ti       9.55218     13.42978      2.32225        -0.601580     -1.081497     -0.182899
Ti       9.57483     13.42527     15.26513        -0.500990      0.374717      1.837635
Ti       9.56236      1.94943      6.72108         0.850830     -0.135087      1.841010
Ti       9.65624     13.42528      6.61530        -0.061791     -0.798159      0.673950
Ti       9.54478      1.95108     10.90358         0.518042      0.559532     -0.435905
Ti       9.59866     13.52505     10.90224        -0.148700     -0.394335      0.767052
Ti       9.64888      5.57183      2.42650        -0.267249      1.110176      0.925419
Ti       9.66719      5.76109     15.38959        -0.732599     -0.070222     -0.006382
Ti       9.49735      5.78265      6.62944         1.266338      0.431384     -1.222867
Ti       9.60782      5.70533     11.05160        -0.278435      0.017617      1.085286
Ti       9.52160      9.54541      2.25682         0.365604      0.066609      0.242897
Ti       9.60698      9.51865     15.36927        -1.781395      0.697046      0.313176
Ti       9.60671      9.53071      6.67073        -0.129011      0.844427     -0.534417
Ti       9.52660      9.55625     11.05708         0.150624     -0.041107      0.176313
O       1.82612      1.97900      0.56194         0.338459     -0.294649      1.540396
O       1.72879      1.84155     13.63480        -0.125778      0.103993      0.619209
O       2.04269     13.45093      0.31517        -0.260941     -0.107326      1.701363
O       1.87853     13.34971     13.67214         0.171213      0.161002     -1.049507
O      13.36787      1.74644      0.46844         0.135095      0.135489     -0.674239
O      13.44544      2.01293     13.66482        -0.045868     -0.300465      0.062999
O      13.36997     13.54617      0.42490        -0.122205     -0.629203      0.940122
O      13.19247     13.21011     13.59785         0.396081      0.549771      0.322426
O       1.85574      1.85565      4.96861         0.165774     -0.073588      0.139670
O       1.66703     13.53999      5.01496         0.745890     -0.091687     -0.058638
O      13.21637      2.00154      4.79976         0.295736     -0.654343      0.644989
O      13.47905     13.38701      4.90195         0.161818      0.088630      0.372031
O       1.84545      1.93597      9.12555        -0.175732     -0.058018      1.892906
O       1.85403     13.41865      9.21513         0.324966     -0.084567      0.308648
O      13.34359      1.93641      9.21763         0.150854      0.148420     -1.189878
O      13.34337     13.49144      9.23810         0.058346     -0.181160      0.723361
O       2.12627      5.68155      0.50238        -0.856345      0.208029      1.428446
O       1.90958      5.66840     13.66064        -0.059855      0.097741      0.104363
O      13.39601      5.66846      0.55200         0.043808      0.292363      1.038170
O      13.24210      5.74399     13.79154         0.354250     -0.466706     -0.587422
O       1.96743      5.84408      4.91581        -0.076042     -0.188932      0.932197
O      13.40816      5.65663      4.66357         0.151718      0.288760      0.326872
O       1.81202      5.67880      9.24697         0.252521      0.038042      0.783985
O      13.38413      5.75260      9.43265        -0.147463      0.014696     -1.390413
O       1.95913      9.65975      0.32804        -0.345203     -0.692016      1.317881
O       1.89638      9.64205     13.50183        -0.027614     -0.329020      1.856684
O      13.48576      9.76774      0.46889        -0.144653     -0.721263      1.288631
O      13.38164      9.67397     13.57748        -0.101823     -0.138411     -0.614907
O       1.92467      9.53643      4.87978        -0.223273      0.009419      1.018966
O      13.42226      9.54854      4.88256        -0.214069      0.137931      0.691410
O       1.82412      9.46723      9.28132        -0.001906      0.176414     -0.278794
O      13.55189      9.56904      9.30483        -0.302603     -0.323603      0.542549
O       5.72221      2.05540      0.53811        -0.058552     -0.463944      0.339083
O       5.79771      1.89730     13.55628        -0.073081      0.038696     -2.214707
O       5.74950     13.51244      0.58131         0.189164     -0.172648     -0.453815
O       5.64897     13.43378     13.49433         0.236136      0.158307      0.142006
O       5.74907      1.96876      5.02261         0.120170     -0.292094     -0.604338
O       5.74099     13.32576      4.99205         0.109977      0.052903      0.713356
O       5.91671      1.74520      9.20864        -0.561464      0.499737     -0.927471
O       5.71709     13.42832      9.30946         0.152146      0.081188     -0.378369
O       5.80896      5.59421      0.57270        -0.237795      0.249666      0.525977
O       5.75430      5.84984     13.53857        -0.184890     -0.442943     -0.158732
O       5.68339      5.59147      4.79069         0.272920      0.599697      0.920124
O       5.78281      5.79597      9.15777        -0.393751     -0.048351      1.400218
O       5.79911      9.70395      0.50755        -0.077277     -0.409072      0.029036
O       5.73833      9.36743     13.53847        -0.098149      0.718871      0.930178
O       5.61900      9.82901      4.89006         0.125096     -0.539538      0.632372
O       5.71743      9.58212      9.23896         0.179511     -0.341026      0.422149
O       9.51958      2.10998      0.31842         0.094346     -0.817937      0.775765
O       9.49988      1.71288     13.60359         0.152058      0.544470      0.826700
O       9.48063     13.34825      0.53957         0.263318      0.030794      0.937040
O       9.66873     13.56627     13.53812        -0.203987     -0.333731     -0.832400
O       9.60088      1.85471      4.99557        -0.275495     -0.025961     -0.612181
O       9.48965     13.63733      4.88198         0.465591     -0.538225     -0.384082
O       9.50651      1.95672      9.07281         0.342672      0.304550      1.737658
O       9.64740     13.34124      9.14726         0.082990      0.098695      0.625745
O       9.74936      5.58985      0.69379        -0.329358      0.010886     -1.210914
O       9.61249      5.79170     13.61067         0.133275     -0.075338      0.917523
O       9.51798      5.91541      4.81285        -0.261385     -0.678466      1.253790
O       9.67300      5.75087      9.32225        -0.069788     -0.251387     -0.945701
O       9.52444      9.66614      0.46458         0.143085     -0.219961      0.550267
O       9.54862      9.57023     13.59422         0.262223     -0.139219      0.718453
O       9.64257      9.51505      4.89001        -0.220684      0.156618      1.078482
O       9.47220      9.63007      9.30021         0.150435     -0.355406     -0.400016
O       3.79846      1.87999      2.84971         0.314209      0.377938     -0.289965
O       3.73884      2.03063     15.73748         1.304665     -1.140328     -0.152406
O       3.79970     13.38022      2.82468        -0.120548      0.078017     -0.483939
O       3.92241     13.47055     15.80271        -0.820830      0.051777     -0.244356
O      15.26056      1.98115      2.73460         1.179229     -0.568294      0.040613
O      15.30846      1.85334     15.89763        -1.405836      0.321798     -0.119739
O       0.03680     13.45352      2.63748         0.181627      0.028837     -0.425562
O      15.32792     13.34161     15.74364        -0.330157     -0.211701     -0.204313
O       3.81643      1.79397      7.18297        -0.131956      0.213952     -0.245682
O       3.79657     13.45257      7.15116         0.226747      0.169004     -0.001509
O      15.26233      1.99101      6.99176        -0.101001     -0.317221      0.239323
O      15.33651     13.40323      7.23644        -0.383177      0.200020     -0.334534
O       3.80232      1.89425     11.45232        -0.543207     -0.218240     -0.685728
O       3.82382     13.43870     11.41291        -0.791849     -0.258744     -0.277473
O      15.28939      1.85069     11.41365         0.538150      0.355472     -0.384579
O      15.32583     13.42506     11.43934         0.227216      0.120206     -0.098425
O       3.77772      5.70599      2.76535         0.708487     -0.048757      0.109320
O       3.86285      5.87054     15.78970        -0.423053     -0.542238     -0.207552
O       0.00877      5.73684      2.76904        -0.184210      0.018314     -0.300056
O      15.33440      5.78429     15.90654         0.688898     -0.223835     -0.163796
O       3.87819      5.78458      7.10707        -0.326986     -0.126171     -0.398820
O      15.26133      5.68470      6.89134         0.387701     -0.110962      0.340394
O       3.81984      5.76911     11.47733        -0.106325     -0.412298     -0.529677
O      15.32514      5.78606     11.53615         0.107576     -0.306275     -0.114666
O       3.77250      9.66235      2.64598        -0.189590     -0.302007     -0.108659
O       3.83241      9.50893     15.68300         0.194697      0.024635      0.295753
O       0.01017      9.60739      2.66686         0.245764     -0.352424     -0.323801
O      15.33354      9.59024     15.70730         0.249405      0.112776     -0.000035
O       3.82157      9.64813      7.10276        -0.715346     -0.507247      0.027016
O      15.32374      9.45206      7.09767         0.971504      0.455801     -0.177009
O       3.80403      9.60527     11.46712         0.711308     -0.055471     -0.464435
O       0.04047      9.48546     11.57577        -1.589525      0.206535     -0.347089
O       7.62085      1.88947      2.59724         0.204836      0.176002      0.366623
O       7.60492      1.84713     15.74223        -0.342482      0.247112     -0.135619
O       7.68429     13.45262      2.82795        -0.260605     -0.039695     -0.292296
O       7.61747     13.42924     15.71257         0.326279      0.107335     -0.124363
O       7.66901      1.92598      7.20962         0.107348      0.100141     -1.029805
O       7.74485     13.31717      7.14346        -0.658470      0.005373     -0.446133
O       7.71864      1.99074     11.41438        -0.932596     -0.136239     -0.070564
O       7.68915     13.42870     11.49664         0.716486      0.041001     -0.499849
O       7.63792      5.72590      2.72272        -0.229937     -0.065047      0.106596
O       7.68703      5.77949     15.73335         0.313510     -0.165724      0.105688
O       7.65389      5.64962      7.03159        -0.669755      0.242938     -0.346805
O       7.65674      5.68538     11.56358        -0.450651     -0.006471     -0.746449
O       7.64206      9.49679      2.75351        -0.530598      0.100634     -0.082002
O       7.61675      9.48643     15.82533         1.011611      0.552967     -0.280908
O       7.62578      9.66121      7.11826         0.228932     -0.084537     -0.465205
O       7.68334      9.62451     11.65133        -0.602076     -0.205395     -1.252347
O      11.48291      1.79004      2.52998        -0.967533      0.345547      0.164492
O      11.40552      1.88126     15.69222         1.352712      0.054420      0.059620
O      11.51605     13.43956      2.71582        -0.880165     -0.112734     -0.213977
O      11.43834     13.31767     15.84488         0.453681      0.687332     -0.432934
O      11.49848      1.83284      7.17486        -0.722022      0.429763     -0.611706
O      11.58902     13.27623      7.05217        -0.712264      0.533895      0.008793
O      11.45941      1.81616     11.48648        -0.361683      0.291582     -0.336833
O      11.47705     13.45282     11.35219        -0.732106      0.011071      0.052767
O      11.51899      5.62312      2.83288        -0.009745      0.340825     -0.511758
O      11.54115      5.71143     15.98885        -1.247962      0.215390     -0.422719
O      11.54419      5.92934      6.99557        -0.455292     -0.573585      0.094267
O      11.47338      5.70538     11.56974        -0.105788      0.322988     -0.218242
O      11.50090      9.63046      2.74330         0.127830      0.359077     -0.376033
O      11.46670      9.50360     15.68594        -0.436362      0.094994      0.315067
O      11.52425      9.44551      7.06538        -0.540798      0.136720      0.174090
O      11.51614      9.51349     11.39320        -0.147081      0.475464     -0.046819
O       1.85553      3.85275      2.79830         0.169479     -0.517474      0.158438
O       1.89858      3.77411     15.89623        -0.542765      1.111238     -0.394385
O       2.00424     15.31484      2.69213        -0.638714      0.114241      0.012626
O       1.84573     15.34125     15.81631         0.448648     -0.905039     -0.010615
O      13.35774      3.73706      2.71419         0.060278      0.871452     -0.352105
O      13.39797      3.81781     15.94512         0.123215     -1.032900     -0.622908
O      13.44867     15.32107      2.72625         0.005056     -0.369465     -0.153336
O      13.42510     15.25358     15.72730        -0.472043      0.605249     -0.273133
O       1.87246      3.82255      7.08918         0.477524      0.409741     -0.278292
O       1.79559     15.35334      7.31399         0.294489      0.339359     -0.809399
O      13.28097      3.80663      6.95584         0.074619      1.218965      0.135757
O      13.35922     15.34912      7.01082         0.361657     -0.197581     -0.065731
O       1.86514      3.81200     11.46439         0.090501     -0.732691     -0.133776
O       1.84986     15.30735     11.38453         0.230775      0.376514     -0.283276
O      13.29870      3.76335     11.47093         0.453995      0.406114      0.039216
O      13.38213      0.01978     11.44523         0.148198     -0.394558      0.010200
O       1.92743      7.62906      2.71717         0.068169      0.898138     -0.615436
O       1.90017      7.63246     15.89759        -0.266546      0.566182     -0.528627
O      13.33253      7.71514      2.61107         0.554276     -0.461863     -0.253475
O      13.47116      7.67202     15.80040        -0.391609      0.318231      0.281789
O       1.88463      7.61932      7.19170         0.205726      0.305873     -0.494750
O      13.49752      7.62133      7.08935        -0.200943     -0.330042     -0.189575
O       1.92327      7.64101     11.55424        -0.023889     -0.586770     -0.347954
O      13.35502      7.65798     11.62113         0.318454      0.402533     -0.396125
O       1.90787     11.45887      2.57650        -0.169644      0.509465     -0.174698
O       2.07141     11.45059     15.82108        -0.777487      0.249636     -0.726062
O      13.47104     11.56523      2.75611        -0.159550     -0.243865     -0.361717
O      13.37966     11.42465     15.87543        -0.254080      0.511975     -0.630006
O       1.88400     11.53886      7.08309        -0.097028     -1.068588     -0.192803
O      13.49573     11.39862      7.15539        -0.326414      0.185429     -0.209500
O       1.78904     11.42343     11.43788         0.507180      1.511554     -0.365838
O      13.44154     11.54875     11.38634        -0.319841     -0.844709     -0.092040
O       5.69105      3.82487      2.84076         0.083016     -0.546733     -0.271327
O       5.70801      3.87500     15.71131         0.424772     -0.529268     -0.396289
O       5.76677     15.31207      2.76660        -0.412077      0.764819     -0.019743
O       5.73290     15.33763     15.80156        -0.449190      0.601015     -0.695940
O       5.66624      3.79054      7.08282         0.266053      0.701146     -0.012474
O       5.82388     15.29782      7.09962        -0.091332     -0.134624     -0.100931
O       5.68155      3.79757     11.24990        -0.099393      0.766610      0.152893
O       5.74856      0.02772     11.37537         0.005043     -0.148816      0.252388
O       5.58767      7.68412      2.67724         0.750276     -0.486688     -0.148177
O       5.75870      7.65946     15.83947         0.109070     -0.126306      0.161386
O       5.75424      7.66418      6.96695         0.054519     -0.074929     -0.093743
O       5.69467      7.68137     11.38232         0.335313     -0.515195     -0.405786
O       5.75545     11.51531      2.62524         0.233386      0.172472      0.247522
O       5.74073     11.49902     15.62848         0.097359     -0.315036      0.167632
O       5.69600     11.49035      7.31075         0.150370      0.350752     -0.633310
O       5.75689     11.53388     11.43309         0.135227     -0.616287     -0.066930
O       9.48952      3.71199      2.87116         0.499039     -0.185317     -0.596735
O       9.50487      3.82487     15.59656         0.255799      0.519561      0.041311
O       9.51737      0.02608      2.57228         0.117548     -0.844630      0.148811
O       9.60336     15.29111     15.77662        -0.424263      0.011274     -0.144660
O       9.62397      3.93330      7.06681         0.112535     -0.760810     -0.249016
O       9.60544     15.26391      7.08573        -0.040932      0.727757     -0.081129
O       9.60499      3.82128     11.57791         0.068883     -0.261649     -0.410188
O       9.50522      0.07460     11.24572         0.183248     -1.422467      0.077551
O       9.59301      7.66518      2.69683         0.131987     -0.236002     -0.376091
O       9.55939      7.62733     15.98895         0.401309      0.042228     -0.704815
O       9.45096      7.64000      7.15858         0.223432      0.412571     -0.044411
O       9.56563      7.63682     11.45404        -0.053038      0.167461     -0.194107
O       9.45272     11.46373      2.80004         0.733281      0.512405     -0.353013
O       9.62400     11.55041     15.71680        -0.645586     -1.288897     -0.341763
O       9.68125     11.46233      7.07977        -0.186980     -0.485765     -0.255161
O       9.59185     11.45909     11.42458         0.050231      1.112131     -0.116405
