  # total energy = -7878.60719157 
CRSYTAL
PRIMVEC
    15.6000000000000000    0.0000000000000000    0.0000000000000000
     0.0000000000000000   15.6000000000000000    0.0000000000000000
     0.0000000000000000    0.0000000000000000    17.640000000000000
PRESSURE
-3.33776 -3.52572 2.01721 -0.088966 -0.076556 -0.05424
PRIMCOORD
320 1
Pb       3.85346      3.92441      4.27831         0.026921     -0.236170      0.035822
Pb       3.78279      3.74807     17.55324         0.363524      0.023295     -0.290374
Pb       4.09515      0.09487      4.34802        -0.818733     -0.205230      0.073397
Pb       3.98116     15.48604     17.46523        -0.248336      0.473220      0.650221
Pb       0.01433      3.89029      4.30871        -0.668450     -0.181740      0.173911
Pb      15.49770      3.84847     17.60023         0.179780     -0.162861     -0.057369
Pb      15.58172     15.55347      4.33186         0.103529      0.522931      0.101147
Pb       0.21365     15.49796     17.49611        -0.869959     -0.006085      0.964536
Pb       3.95569      3.80024      8.70322        -0.187607      0.083909      0.012613
Pb       3.85786     15.55217      8.74805         0.077833      0.418827     -0.097584
Pb      15.59692      3.80186      8.65480        -0.015929      0.324517      0.554930
Pb       0.04749     15.48085      8.96362        -0.075549      0.011550     -0.666864
Pb       3.72422      4.09727     13.09233         0.375049     -0.846925      0.640839
Pb       3.79119     15.57558     13.15507         0.518351      0.435133      0.078250
Pb      15.47823      3.83109     13.17903         0.340813      0.175066     -0.460780
Pb       0.02297      0.00342     13.09973        -0.670012     -0.541649      0.451274
Pb       3.80825      7.75301      4.22014        -0.069973      0.367349      0.359695
Pb       3.71310      7.76972     17.56692         0.315199     -0.129120      0.329304
Pb      15.46680      7.76478      4.43499         0.283450     -0.031698     -0.305680
Pb      15.46775      7.75678      0.03336         0.217738     -0.202038     -0.079959
Pb       3.89083      7.76846      8.72229        -0.277749     -0.289334      0.047479
Pb       0.05360      7.71156      8.71300        -0.454618      0.561596     -0.114376
Pb       3.87985      7.79961     13.17228        -0.520397      0.320145      0.182772
Pb      15.34798      7.83613     13.18102         1.780004     -0.027655      0.147962
Pb       3.89063     11.69283      4.28546        -0.161564      0.017752      0.676239
Pb       3.93470     11.62987     17.57590        -0.531062      0.429997     -0.148624
Pb      15.54335     11.61912      4.41817         0.217886      0.308844      0.060301
Pb      15.56599     11.59052      0.13383        -0.161125      0.560060     -0.516548
Pb       3.89146     11.67264      8.65042        -0.325471     -0.164073      0.071346
Pb      15.59656     11.63330      8.80079        -0.163921     -0.321270     -0.362316
Pb       3.90911     11.68766     13.21386        -0.218264     -0.559939     -0.200294
Pb       0.08388     11.61115     13.18307        -0.295298      0.078151      0.077319
Pb       7.82706      4.08607      4.28816        -0.671687     -0.999042      0.401875
Pb       7.77246      3.80075     17.47224        -0.199462     -0.013909     -0.000103
Pb       7.96383      0.02238      4.28557        -0.365455      0.041288      0.379985
Pb       7.90757     15.44429     17.60624        -0.311261      0.561341     -0.142522
Pb       7.96897      3.88973      8.69289        -0.712514     -0.167109      0.051282
Pb       7.74120     15.49596      8.66836         0.272596     -0.353775      0.388794
Pb       7.65146      3.88547     13.00078         0.240743     -0.078664      0.977131
Pb       7.68131     15.43534     13.20992         0.328337      0.816412     -0.090936
Pb       7.67339      7.89470      4.30018        -0.004235      1.020187      0.615375
Pb       7.82473      7.80855     17.55577        -0.041205     -0.010847      0.387481
Pb       7.84075      7.77603      8.75737         0.210661      0.002503     -0.107937
Pb       7.75605      7.67774     13.10659        -0.139615      0.125617      0.558691
Pb       7.74724     11.80216      4.34044         0.597386     -0.426667     -0.274888
Pb       7.74186     11.73762      0.04847         0.227443     -0.104919     -0.279418
Pb       7.70255     11.65642      8.88606         0.274833      0.331684     -0.843578
Pb       7.84134     11.53503     13.20818        -0.368081      0.143659      0.360328
Pb      11.53707      4.02932      4.35514         1.030078     -1.212871      0.017204
Pb      11.71344      4.01375     17.47676        -0.223996     -0.716585      0.897313
Pb      11.76146      0.03227      4.36958         0.222349      1.152183      0.155259
Pb      11.70831      0.00831     17.52547         0.235439     -0.052368      0.501594
Pb      11.69632      3.90453      8.77198         0.196158     -0.160332     -0.044138
Pb      11.63629     15.53650      8.81923         0.052047     -0.115409      0.185285
Pb      11.55087      3.92233     13.19417        -0.128124     -0.311982      0.007166
Pb      11.72901     15.53107     13.18136         0.264865     -0.351725      0.100570
Pb      11.63075      7.81447      4.32377         0.278048      0.534034      1.372025
Pb      11.67863      7.89045     17.59599        -0.234563     -0.320073      0.464195
Pb      11.77324      7.73516      8.77188        -0.089028      0.638211     -0.323178
Pb      11.68186      7.83395     13.19467        -0.826415      0.157269     -0.074140
Pb      11.75415     11.93713      4.47414        -0.169771     -1.235116     -0.179202
Pb      11.67967     11.80342      0.01645         0.122001     -0.294791      0.565984
Pb      11.64216     11.69777      8.69574        -0.013843     -0.459202      0.137661
Pb      11.80731     11.71811     13.10493         0.160510     -0.053921      0.700787
Ti       1.95924      1.90569      2.32107        -0.108985     -0.880633      1.191850
Ti       1.95541      1.92126     15.55337         0.048581      0.150745      2.483890
Ti       1.98921     13.64087      2.54729        -0.314059      0.366464     -0.266109
Ti       1.92677     13.58276     15.45885         0.004963      0.152316      2.456031
Ti      13.66428      2.01474      2.33814        -0.305383      0.102377      1.966049
Ti      13.72057      1.86650     15.49137        -0.552423     -0.545292      2.227238
Ti      13.69608     13.67385      2.46684         0.865552      0.185206     -1.323874
Ti      13.65039     13.57629     15.75966         0.279951     -0.296728     -1.537521
Ti       1.89179      1.86554      6.75020         0.983375      0.351037      1.201077
Ti       1.91780     13.64254      6.76229        -0.417584     -1.051244     -0.473973
Ti      13.70577      1.85962      6.92189        -1.010411     -0.120036     -0.070466
Ti      13.63038     13.67577      6.84616         0.189810     -0.235840      1.003312
Ti       1.90368      1.95722     11.27480         0.647098     -0.410901     -0.913056
Ti       2.00447     13.62618     11.21544        -0.643336     -0.649462      0.783537
Ti      13.53121      1.90260     11.20697         0.211932     -0.259544      0.189681
Ti      13.75865     13.50170     11.14432        -0.506750      0.922172      2.199694
Ti       1.78377      5.76273      2.36436         0.219424      1.854953      0.987141
Ti       1.80283      5.89024     15.66768         0.638467     -1.091962      1.203788
Ti      13.44822      5.91089      2.41264         1.322793     -1.265534      2.773609
Ti      13.58606      5.81614     15.50176         0.162867      0.304339      1.386198
Ti       1.89973      5.78034      6.77892         0.659019      0.313177      2.047961
Ti      13.59783      5.76994      6.67923         0.177804      0.792181     -0.542587
Ti       1.85846      5.91049     11.10924        -0.246723     -0.051605      0.174748
Ti      13.54144      5.78847     11.31380         0.681636     -0.503721     -0.672615
Ti       1.83409      9.75506      2.43442         0.349128     -0.323178     -0.247376
Ti       1.86355      9.79857     15.70233         0.932303     -0.116508     -0.130593
Ti      13.53634      9.75160      2.49890         0.080630      0.473886      0.446844
Ti      13.64692      9.70481     15.57200         0.769051      0.917430      1.337758
Ti       1.92578      9.73237      6.75222        -0.385124     -0.280892      3.151583
Ti      13.56673      9.77673      6.76402        -0.210084     -0.163401      1.085375
Ti       1.94499      9.70451     11.08553        -1.436272     -0.026261      0.024179
Ti      13.58907      9.67822     11.22694         0.522830      0.681975     -2.045099
Ti       5.90179      1.95141      2.33237        -0.104336     -0.261487     -0.232385
Ti       5.96265      1.89099     15.52388        -0.667158      0.044916      0.400581
Ti       5.84675     13.68243      2.45894         0.512865      0.446254      0.467609
Ti       5.83030     13.65597     15.43113        -0.109083     -0.737195      2.892517
Ti       5.90669      1.87742      6.74166        -1.016303      0.596780      0.835004
Ti       5.77716     13.55582      6.68318         0.972075      0.362803      1.102234
Ti       5.82571      1.80393     11.15553        -0.519551      0.300495      1.459666
Ti       5.84275     13.53048     11.22717         0.258620      0.084160      0.816066
Ti       5.79684      5.89381      2.29986         0.222901      0.032121      0.622838
Ti       5.85177      5.84378     15.66128        -0.248990     -0.926256      3.059247
Ti       5.86944      5.87055      6.84979        -0.277114     -0.504538      1.359358
Ti       5.69263      5.82148     11.19478         0.451282     -0.102939      0.204223
Ti       5.73594      9.79497      2.31202         0.975247     -0.496199      1.974114
Ti       5.85408      9.65808     15.75958        -0.823627      1.122428     -0.563046
Ti       5.84970      9.70892      6.74231        -0.087037     -0.170350      0.490485
Ti       5.74072      9.67102     11.17425         0.273000     -0.125458      1.706953
Ti       9.75790      1.99551      2.31238         0.588073     -0.868318     -0.168042
Ti       9.89160      1.91575     15.51974        -1.374606     -0.474378      2.122118
Ti       9.91866     13.73538      2.43489        -1.927119     -1.227367     -0.042587
Ti       9.73777     13.62141     15.55993         0.327891     -0.115374      1.730499
Ti       9.77125      1.88129      6.87083         0.549299     -0.615413     -1.099274
Ti       9.73201     13.55267      6.75219        -0.434889      0.552407      2.754498
Ti       9.66686      1.88778     11.32162         0.043091     -0.073095      0.382381
Ti       9.68868     13.57183     11.31400         0.977368      0.716244     -0.198007
Ti       9.61745      5.96015      2.39155         1.142808      0.148530      0.629390
Ti       9.77350      5.82407     15.63586        -0.903377      1.271578      0.096313
Ti       9.79139      5.86410      6.68513        -0.245909      0.557740      3.989997
Ti       9.73387      5.93167     11.20190        -0.507575     -1.044974      1.663186
Ti       9.74625      9.79831      2.49134        -0.449953      0.986126     -0.054791
Ti       9.88168      9.81036     15.74155        -1.882471     -0.467974      0.555445
Ti       9.64147      9.74896      6.73246         1.320837     -0.035086      1.099290
Ti       9.58395      9.77159     11.21107         2.056839     -0.526731     -1.467683
O       1.85543      1.82605      0.62605         0.184381      0.181246     -1.324445
O       1.88813      1.94070     13.87290         0.087636     -0.056988     -2.453278
O       2.00597     13.62819      0.81691        -0.160211      0.012389     -0.397250
O       1.86640     13.61723     13.75382         0.455488     -0.207534     -0.944370
O      13.54464      2.01032      0.66761         0.074325      0.084505     -1.963001
O      13.69840      1.81571     13.78965         0.047039      0.558265     -0.728516
O      13.71675     13.72240      0.71957        -0.079266     -0.174227     -0.364533
O      13.62390     13.43716     14.00387         0.155606      0.282005      0.740337
O       1.95796      2.07873      5.07230        -0.056881     -0.162961     -1.338802
O       1.95670     13.43029      5.02212        -0.355801      0.773674      0.524066
O      13.65702      1.85290      5.20678         0.004123     -0.324750     -0.439679
O      13.58873     13.70060      5.09758         0.178982      0.233035     -0.777746
O       2.01366      1.75007      9.53635        -0.441858      0.384648      0.204748
O       2.01595     13.56400      9.48117        -0.092532      0.117143     -0.517165
O      13.54109      2.03262      9.45361         0.157142     -0.170177      0.235408
O      13.72375     13.53573      9.45503        -0.164639      0.127122     -1.056284
O       1.69508      5.90396      0.66434        -0.022284     -0.240367     -0.876125
O       1.92478      5.90185     13.96422         0.007413     -0.130525     -1.138553
O      13.55938      5.95895      0.73819        -0.087818      0.052357     -2.214759
O      13.60983      5.67329     13.76781         0.028464      0.374244     -0.592601
O       1.88608      5.76680      5.08255         0.406687     -0.032173     -1.748453
O      13.57622      5.78011      4.90183         0.171796      0.198572      1.368512
O       1.91122      5.87302      9.38094        -0.159996     -0.081043     -0.180876
O      13.44967      5.88835      9.58129         0.202086     -0.274317      0.007169
O       1.87243      9.78515      0.67132        -0.207736      0.085684     -0.304998
O       1.90139      9.68798     13.98343         0.159357      0.075069     -0.913083
O      13.61040      9.71301      0.78128         0.100590     -0.370510     -1.007095
O      13.78589      9.71394     13.85968        -0.561217     -0.023309     -1.146429
O       1.77545      9.74968      5.09657         0.147331     -0.080647     -2.482794
O      13.57152      9.86782      5.04122         0.306303     -0.143271     -1.221928
O       1.77945      9.78872      9.32377         0.563999     -0.164832      0.799371
O      13.64281      9.65236      9.44664        -0.108975     -0.010153      0.834488
O       5.81202      1.84255      0.61219         0.557225     -0.109358     -0.468167
O       5.90156      1.79191     13.80026        -0.079269      0.307507      0.189865
O       5.83601     13.98440      0.77551        -0.063251     -0.796619     -0.988948
O       6.02200     13.53472     13.73124        -0.735885     -0.270945     -1.135828
O       5.85986      1.96583      5.01544         0.064223     -0.062308     -0.382922
O       5.83445     13.62626      4.96656         0.109991      0.001300     -0.562310
O       5.82431      1.75589      9.44507        -0.014138      0.314456     -0.894278
O       5.95444     13.41476      9.51799        -0.129950      0.443265     -0.712145
O       5.87467      5.89573      0.61319         0.017249     -0.019035     -0.837548
O       5.82831      5.74429     14.01256        -0.423663      0.377901     -2.813487
O       5.89738      5.85798      5.16349        -0.230950     -0.020925     -1.741220
O       5.56316      5.79375      9.49703         0.767645     -0.021430     -1.133704
O       5.80208      9.74725      0.62413        -0.264124      0.304661     -1.914900
O       5.62758      9.73468     14.01611         0.618376      0.175612     -0.450190
O       5.96253      9.67539      5.02571        -0.475379      0.029847     -0.312872
O       5.87975      9.58288      9.51877         0.093085      0.332202     -2.235783
O       9.78381      1.80891      0.55681        -0.098105      0.650084      0.581312
O       9.71306      1.87645     13.84423         0.358291      0.137902     -1.292101
O       9.82236     13.48182      0.71756         0.037976      0.842422      0.055897
O       9.85680     13.54332     13.86632        -0.469225     -0.113839     -1.178914
O       9.79191      1.75824      5.12868        -0.052548      0.386412      0.359005
O       9.64174     13.73801      5.09088         0.539588     -0.062145     -2.906675
O       9.58455      1.94141      9.60265         0.414786      0.182108     -0.936040
O       9.75740     13.57739      9.57320        -0.251844     -0.339274      0.386380
O       9.55026      5.97884      0.68215         0.312280     -0.277970     -0.218321
O       9.85967      5.87991     13.91361        -0.189016      0.255754     -0.843865
O       9.77761      5.86939      5.03249        -0.287235     -0.126157     -2.887827
O       9.90822      5.83749      9.52248        -0.533105     -0.080850     -1.393217
O       9.78265      9.89265      0.73179         0.035077     -0.388904     -0.152293
O       9.82246      9.65810     14.03734        -0.055061      0.309174     -0.880865
O       9.72408      9.83888      5.02771        -0.357715     -0.414058     -0.654636
O       9.74261      9.69110      9.45265        -0.657786      0.292425      0.718138
O       3.89486      1.90319      2.61553         0.709639      0.603723      1.052385
O       3.85355      1.88503     16.03990        -0.063596      0.232223     -0.499888
O       3.88259     13.66467      2.95525         0.685404     -0.313830     -0.242697
O       3.88568     13.71344     15.99679        -0.188248     -0.586932     -0.916228
O       0.11021      2.03104      2.71893        -1.180993      0.025665      0.450247
O      15.55181      1.98798     16.10544        -0.549276     -0.396881     -0.754551
O      15.59955     13.65877      2.91170        -0.256322     -0.235061      0.137059
O       0.06333     13.53162     16.13991        -0.400678      0.080155     -0.347678
O       3.87847      1.86125      7.10432         0.227296      0.077083      0.435162
O       3.91676     13.50958      7.08304        -0.317997      0.101633      0.416880
O      15.56826      1.72696      7.26358         1.059293      0.768971      0.286530
O      15.55449     13.63493      7.28466         1.054214      0.064110     -0.259761
O       3.90605      1.76406     11.63542        -0.569251      0.407636      0.087460
O       3.91315     13.67706     11.60685         0.527440     -0.422671      0.257607
O      15.52713      1.90840     11.70021         0.706627      0.126860     -0.520836
O       0.05116     13.65438     11.65862        -0.708638     -0.378509     -0.570129
O       3.91206      5.91872      2.82574         0.034626     -0.638139     -0.483354
O       3.74735      5.72999     16.31997         0.388586      0.490189     -1.177420
O      15.56400      5.92172      2.91885        -0.098029     -0.332995     -0.448231
O      15.43016      5.88444     16.16476         0.357943     -0.413247     -0.664431
O       3.83644      5.74267      7.34060         0.662488      0.142644     -0.867746
O       0.01896      5.84767      7.20764        -1.171579     -0.080749     -0.186114
O       3.79869      5.92028     11.56914        -0.134356     -0.131686      0.779123
O      15.59977      5.76622     11.54068        -0.973218      0.025175      0.455070
O       3.84294      9.71972      2.85503         0.259894      0.273244     -0.326972
O       3.80629      9.70865     16.06262         0.628583      0.059567      0.833188
O      15.56663      9.72843      2.84091        -0.757574      0.139240      0.299109
O      15.58874      9.98192     15.96903        -0.750620     -1.288251      0.651641
O       3.86750      9.70172      7.26956         0.516793      0.255874     -0.731730
O      15.46265      9.69307      7.23591         1.021300      0.251846     -0.257821
O       3.81031      9.55981     11.51256         0.500614      0.943681      0.292898
O      15.57949      9.78325     11.58207         0.469328     -0.755562      0.413101
O       7.80688      1.83570      2.74735         0.412102      0.296955     -0.095632
O       7.86612      1.87870     15.95908        -0.248268      0.232311      0.152097
O       7.91200     13.67850      2.76655        -0.442949      0.018586      0.223975
O       7.72368     13.60962     16.06964         0.670483      0.119450     -0.471740
O       7.81604      1.81507      7.22862        -0.028788      0.212968     -0.024948
O       7.82747     13.53490      7.21879        -1.017665      0.381390      0.106069
O       7.72353      1.89706     11.68503         0.195161      0.503608     -0.228270
O       7.78381     13.44884     11.79989         0.414447      0.148789     -0.693535
O       7.82504      6.05030      2.96696        -0.606842     -1.110351     -0.905802
O       7.82308      5.82293     16.03165        -1.006932      0.069823      0.008143
O       7.83989      5.82757      7.22207        -0.195186      0.029631      0.070735
O       7.70445      5.81829     11.66648         0.391029      0.161551     -0.577757
O       7.76730      9.79698      2.80862         0.317926     -0.132811     -0.061031
O       7.76299      9.87393     16.18522        -0.020317     -0.406247     -0.465294
O       7.77645      9.56364      7.24946        -0.175671      0.689812     -0.100886
O       7.76515      9.68868     11.63135        -0.528399      0.319294      0.245381
O      11.72736      2.05144      2.81885        -0.747287     -0.304776      0.005515
O      11.72215      1.81333     16.02798         0.249263      1.135507     -0.604491
O      11.81013     13.77364      2.82605        -0.963338     -0.188149      0.328093
O      11.67944     13.58587     16.12195         0.348492      0.278168     -0.207251
O      11.66572      1.94867      7.33854         0.042595     -0.361132      0.072950
O      11.67136     13.62339      7.23433         0.496698     -0.123386     -0.036852
O      11.65184      1.86546     11.73294        -0.145588      0.235131     -0.409184
O      11.72536     13.59842     11.84241         0.032891     -0.041851     -1.225429
O      11.60493      5.89784      2.94405        -0.602769     -0.638853     -1.067709
O      11.63013      6.03441     16.08051         1.341258     -0.642435     -0.094738
O      11.71276      5.81110      7.17114         0.156389     -0.487361     -0.137798
O      11.57577      5.75108     11.65585         1.159013      0.786595      0.444017
O      11.67918      9.77470      2.93621         0.209431     -0.036049     -0.151308
O      11.71685      9.69948     16.13486         0.510244      0.165507     -0.493136
O      11.64042      9.84356      7.14529         0.093111     -0.218761      0.270808
O      11.74299      9.69593     11.50839        -0.630162     -0.364098      0.914455
O       1.94485      3.94986      2.82441         0.409646     -0.618766     -0.331601
O       1.75794      3.82714     16.05485         0.537618      0.369938      0.025300
O       1.95574     15.58746      2.93349        -0.060930      0.247344     -0.208156
O       1.85756     15.54267     15.95878         0.377527      0.116904     -0.579407
O      13.61763      3.93189      2.87175         0.118666      0.286424     -0.382674
O      13.51302      3.97135     16.12619         0.424190     -0.514692     -1.059379
O      13.73577      0.12717      2.86827        -0.193463     -0.795646      0.047929
O      13.58974     15.58527     15.96403         0.597395     -0.131026      0.014977
O       1.84042      3.81139      7.24277         0.235749     -0.241966     -0.108263
O       1.98567     15.51711      7.22811        -0.100221     -0.092260     -0.207020
O      13.71835      3.86875      7.11217        -0.130510      0.299627      0.549409
O      13.74629     15.55816      7.55043        -1.184193     -0.220406     -0.846000
O       1.97462      3.87728     11.55928        -0.211133     -0.257800      0.067301
O       1.89427     15.50901     11.68527         0.321189      0.792689     -0.115325
O      13.62140      3.79933     11.66890        -0.348195      0.763987      0.085268
O      13.60118     15.53204     11.67657         0.348041     -0.000768     -0.582113
O       1.89636      7.84989      2.75890         0.174492     -0.696835      0.570613
O       1.90780      7.71905     16.10870        -0.737927      1.110646      0.109249
O      13.56586      7.76631      2.88700         0.191974      0.650883      0.029013
O      13.67745      7.75463     15.85907        -0.145921      0.935740      0.314080
O       2.00125      7.74891      7.17838        -0.496395      0.224865     -0.116565
O      13.53160      7.79284      7.14582         0.362020     -0.636365     -0.201428
O       1.88225      7.79601     11.52357        -0.234638      0.270302      0.088369
O      13.59910      7.71797     11.75293        -0.175395      0.017451     -0.339207
O       1.89375     11.66064      2.98816         0.137038     -0.063690     -0.569006
O       2.04071     11.71582     16.00289         0.019131      0.206477     -0.030559
O      13.53771     11.72351      2.69819         0.478663      0.239824      0.831150
O      13.64601     11.60816     16.18463        -0.419529      0.357400     -0.103992
O       1.95799     11.66132      7.20679        -0.304187      0.108458      0.137259
O      13.61149     11.78334      7.21539         0.147475     -0.788285      0.044995
O       1.95284     11.68806     11.73530         0.593647     -0.569067     -0.574236
O      13.75542     11.63120     11.57175        -0.594081      0.272611      0.178443
O       6.04616      3.90678      2.53203        -0.431827      0.604793      0.983859
O       5.78228      3.82382     16.02764         0.421155      0.044066      0.192953
O       5.88352     15.55411      2.89337        -0.163629      0.840222      0.183573
O       5.79662     15.52133     15.85918         0.475076      0.565833      0.145834
O       5.87245      3.82770      7.25085         0.241567     -0.118713     -0.076562
O       5.75575     15.48162      7.27525         0.556216      0.118637     -0.723324
O       5.66309      3.94530     11.69806         0.406868     -0.715693     -0.505768
O       5.92030     15.54671     11.62125        -0.039189     -1.016259     -0.123661
O       5.91478      7.87619      2.67676        -0.577344     -0.829362      0.539456
O       5.73647      7.78615     16.00198         0.395998     -0.493529      0.254606
O       5.86714      7.80398      7.27462        -0.423853     -0.862045     -0.116328
O       5.79254      7.75363     11.60616         0.248854      0.053408      0.655546
O       5.86909     11.69994      2.79616        -0.384752      0.299938     -0.320518
O       5.74270     11.78231     16.17797         0.314509     -0.310769     -0.617833
O       5.90298     11.60926      7.16099        -0.112418      0.183990      0.200003
O       5.89056     11.58435     11.51991        -0.757418      0.104492      0.776706
O       9.63356      3.84232      2.84773         0.187785      1.448153     -0.454556
O       9.80602      3.97812     15.98632         0.235613     -1.653494      0.071562
O       9.82311      0.07761      2.83970         0.213180     -0.719645     -0.348935
O       9.80445     15.52704     16.05134        -0.313086      0.054756     -0.428848
O       9.75279      3.88909      7.14379        -0.184845     -0.289686      0.254426
O       9.87060     15.43188      7.31331        -0.936371      1.567084     -0.006874
O       9.76111      3.91985     11.74391        -0.670539     -0.447898     -0.491881
O       9.64838     15.52645     11.62093         0.188134     -0.130098      0.368158
O       9.90297      7.86378      2.86234        -1.340743     -0.624881     -0.644711
O       9.65292      7.79227     16.16022         0.525706      0.983703     -0.105330
O       9.81289      7.76554      7.24315        -0.258475     -0.224387     -0.396717
O       9.61449      7.84448     11.64920         0.777331     -0.682502      0.149937
O       9.80350     11.70108      2.99834         0.304558      1.027824     -0.315967
O       9.77938     11.77706     16.19786        -0.237495     -1.040671     -0.689950
O       9.68337     11.67335      7.19404         0.029390     -0.567870      0.144033
O       9.89539     11.60665     11.69582        -1.192388      0.108115      0.006739
