  # total energy = -7880.56061497 
CRSYTAL
PRIMVEC
    15.6000000000000000    0.0000000000000000    0.0000000000000000
     0.0000000000000000   15.6000000000000000    0.0000000000000000
     0.0000000000000000    0.0000000000000000    17.640000000000000
PRESSURE
-5.48492 -5.68674 2.58184 0.025048 -0.083873 0.016142
PRIMCOORD
320 1
Pb       3.83348      3.81774      4.39256         0.128079      0.606652     -0.897006
Pb       3.87785      3.89232     17.60773         0.252425      0.219225     -0.690131
Pb       3.87903     15.57428      4.35531        -0.085487      0.047470     -0.558705
Pb       3.85813     15.56421     17.58335        -0.218334      0.190585     -0.633846
Pb       0.01037      3.87156      4.40400         0.051130      0.395507     -1.159424
Pb      15.58892      3.90289     17.62846        -0.187391      0.112829     -0.701484
Pb      15.56279     15.56502      4.35820         0.131611     -0.211056     -0.919344
Pb      15.53313      0.00952     17.58478         0.424517     -0.258919     -0.535730
Pb       3.86010      3.90650      8.79927         0.171875     -0.007135     -0.809142
Pb       3.85510      0.01039      8.76416         0.217648     -0.079507     -0.626503
Pb      15.57546      3.89213      8.74834         0.026295      0.127353     -0.391288
Pb       0.00166     15.59429      8.77859        -0.380251     -0.389250     -0.418188
Pb       3.88769      3.78302     13.22162         0.482433      0.157302     -0.808783
Pb       3.85013     15.56374     13.19689         0.200152     -0.220940     -0.667640
Pb      15.57770      3.82690     13.19034        -0.071043      0.433649     -0.691917
Pb      15.58273      0.04427     13.17719         0.117950     -0.485359     -0.492930
Pb       3.88236      7.80880      4.40318         0.006867     -0.477216     -1.018025
Pb       3.92174      7.79868     17.60311        -0.353688     -0.217464     -0.615212
Pb      15.59215      7.87617      4.39878         0.182154     -0.421937     -0.548081
Pb       0.00356      7.81348     17.58689        -0.011329     -0.138097     -0.697175
Pb       3.89388      7.83430      8.81888        -0.406266     -0.345346     -0.746786
Pb      15.57849      7.79043      8.81297        -0.099945     -0.024938     -0.606031
Pb       3.89173      7.79249     13.16980        -0.502756     -0.018143     -0.516477
Pb       0.01016      7.83300     13.19814         0.276449     -0.333783     -0.934862
Pb       3.88445     11.66209      4.38653         0.303961     -0.037224     -1.021276
Pb       3.90257     11.65432     17.59932        -0.016616      0.312240     -0.881942
Pb      15.54345     11.60209      4.32818        -0.133095      0.344986     -0.371813
Pb      15.57031     11.65198     17.56641        -0.046478      0.324702     -0.533611
Pb       3.85712     11.63050      8.76756         0.470836      0.189081     -0.382884
Pb      15.56190     11.70422      8.81743        -0.193041      0.355308     -1.250506
Pb       3.87423     11.70595     13.19237        -0.097583      0.021673     -0.917970
Pb      15.55028     11.64961     13.19727         0.409389      0.305232     -0.965928
Pb       7.81830      3.79921      4.42352        -0.197118      0.420473     -0.482449
Pb       7.78832      3.85722     17.59327        -0.212823      0.064354     -0.736356
Pb       7.75516     15.54218      4.35645        -0.084107     -0.086554     -0.721193
Pb       7.77570     15.57216     17.63217         0.074726      0.402289     -0.744641
Pb       7.75833      3.88764      8.77435        -0.084197      0.132932     -0.532114
Pb       7.79845     15.58396      8.74427        -0.227315     -0.145119     -0.189699
Pb       7.88501      3.90626     13.15885        -0.562490     -0.055945     -0.834820
Pb       7.78602      0.01122     13.22865        -0.065584     -0.469813     -1.028464
Pb       7.84538      7.78423      4.37880        -0.350823     -0.398828     -0.224525
Pb       7.78886      7.84049     17.62365         0.179569     -0.274117     -0.593516
Pb       7.76742      7.80090      8.77526         0.392529     -0.197640     -0.672514
Pb       7.78157      7.84678     13.13867        -0.056329     -0.241203     -0.511956
Pb       7.81417     11.69335      4.39451        -0.193849      0.039568     -0.811051
Pb       7.78453     11.68918      0.00416        -0.081920     -0.086181     -0.871399
Pb       7.80882     11.68733      8.85868        -0.278713      0.075228     -0.599701
Pb       7.78779     11.70732     13.20302        -0.157360      0.304819     -0.802383
Pb      11.66729      3.88259      4.41393        -0.110710     -0.076466     -0.771699
Pb      11.76587      3.86002     17.60780        -0.179555      0.162725     -0.668858
Pb      11.61478     15.52180      4.40577         0.261643      0.184155     -1.056026
Pb      11.61118     15.54420     17.61730        -0.179283      0.005671     -0.723799
Pb      11.62226      3.88789      8.78488         0.230663      0.085717     -0.627443
Pb      11.73031      0.01775      8.75522         0.044683     -0.006774     -0.449320
Pb      11.72681      3.89062     13.21058        -0.105512     -0.147569     -0.782172
Pb      11.68698     15.58203     13.18906        -0.201168     -0.279403     -0.716800
Pb      11.71930      7.76251      4.33072        -0.323128     -0.331630     -0.247981
Pb      11.71351      7.75905     17.57463        -0.356298      0.049851     -0.623191
Pb      11.64035      7.78535      8.74547        -0.009813     -0.139000     -0.302018
Pb      11.71096      7.76341     13.21599        -0.005549      0.223159     -1.108367
Pb      11.69441     11.67142      4.31579         0.025650      0.070225     -0.358233
Pb      11.74229     11.62577     17.53677        -0.309761      0.101764     -0.256065
Pb      11.70101     11.63831      8.70506        -0.109458      0.271723     -0.255628
Pb      11.65595     11.64795     13.12190        -0.291371      0.160080     -0.547887
Ti       1.94980      1.95420      2.31539         0.101047     -0.120052      2.546965
Ti       1.88391      1.99992     15.56661         0.035986     -0.610675      2.055370
Ti       1.92749     13.67729      2.30457        -0.127578      0.003267      2.015257
Ti       1.92452     13.65977     15.55398        -0.103184     -0.025669      1.684176
Ti      13.68020      1.92511      2.28139        -0.478420     -0.144066      2.076451
Ti      13.56956      1.89011     15.62456         0.457461      0.133927      1.035450
Ti      13.63772     13.56585      2.30260         0.143437      0.295005      2.774544
Ti      13.61089     13.60572     15.55864         0.316945      0.345470      1.892187
Ti       1.84543      1.90329      6.73521         0.746467      0.504188      1.197017
Ti       2.00777     13.64213      6.77710        -1.286373      0.292336      0.938241
Ti      13.65799      1.91049      6.67635        -0.793191      0.323579      2.424827
Ti      13.62050     13.65550      6.65678         0.332861     -0.458550      2.509887
Ti       1.96224      1.91313     11.09946        -0.110268      0.090906      1.466129
Ti       1.90185     13.66526     11.06643        -0.020835     -0.848503      2.687197
Ti      13.61065      1.86238     11.16280         0.043245      0.703305      0.445880
Ti      13.61909     13.63935     11.13486        -0.133492     -0.293699      1.228610
Ti       1.88243      5.91794      2.19982         0.743721     -0.600497      3.394133
Ti       1.89325      5.82630     15.56957        -0.091726      0.370689      2.287378
Ti      13.56127      5.81832      2.24003         0.790741     -0.329553      2.072554
Ti      13.57129      5.84872     15.52008         0.476857     -0.280206      3.257758
Ti       1.91414      5.91188      6.71331        -0.206991     -0.420209      2.599274
Ti      13.62734      5.83438      6.80329        -0.379566      0.149383      2.203368
Ti       1.99516      5.74763     11.12851        -0.900023      1.353073      1.120155
Ti      13.65444      5.82790     11.17218         0.160943      0.338589      1.063930
Ti       1.91619      9.78993      2.32425         0.218828     -0.857711      1.006354
Ti       1.88702      9.74413     15.54756         0.335010      0.013974      1.179030
Ti      13.55278      9.66326      2.39889         0.483660      0.299649      2.457783
Ti      13.60368      9.72735     15.52560        -0.031624     -0.133138      3.026101
Ti       1.98046      9.76430      6.73464        -0.848919     -0.577120      1.493917
Ti      13.59418      9.70016      6.72655         0.574316      0.197365      1.753816
Ti       1.91451      9.70450     11.07444         0.187826      0.031678      2.829317
Ti      13.61476      9.75269     11.13977        -0.042351     -0.424428      1.785357
Ti       5.82819      1.96533      2.34940        -0.086365     -0.171951      1.451106
Ti       5.78337      1.95016     15.46556         0.373803      0.149712      2.106276
Ti       5.79657     13.62667      2.32132         0.264157     -0.500720      2.051111
Ti       5.88819     13.67985     15.58120        -0.704021     -0.270134     -0.732606
Ti       5.79790      1.89818      6.74321         0.362734      0.237641      1.711811
Ti       5.83322     13.61757      6.74010         0.267095     -0.095613      2.163361
Ti       5.88070      1.89391     11.10283        -0.119234      0.827224      2.790328
Ti       5.74927     13.66078     11.10204         0.949217     -0.277167      1.927369
Ti       5.86409      5.80793      2.28678        -1.032939     -0.063548      4.274728
Ti       5.83061      5.86708     15.59680        -0.461118     -0.355644      2.198623
Ti       5.72093      5.86009      6.73504         0.986918     -0.700834      1.521382
Ti       5.79456      5.91122     11.10894         0.922513     -1.343894      2.189964
Ti       5.87614      9.67586      2.29722        -0.643765      0.312558      2.561625
Ti       5.77244      9.69768     15.54010         0.857893      0.637424      2.139261
Ti       5.88582      9.70940      6.74609        -0.100644      0.253936      2.389835
Ti       5.81795      9.71389     11.16804        -0.062472      1.011796      0.772801
Ti       9.73532      1.95081      2.36015         0.218130     -0.148581      1.467786
Ti       9.69678      1.94259     15.51499        -0.308301     -0.308480      1.125527
Ti       9.76378     13.62234      2.26239        -0.038612      0.117294      1.867278
Ti       9.72304     13.65078     15.55385         0.380205     -0.223741      2.059833
Ti       9.71648      1.90369      6.76569         0.143633      0.698476      2.044408
Ti       9.70043     13.63801      6.74395         0.324304     -0.344434      2.446211
Ti       9.75506      1.90525     11.14657        -0.404270     -0.493547      0.697573
Ti       9.71171     13.60344     11.08227        -0.030408      0.182573      2.653565
Ti       9.67637      5.85746      2.29464         0.205166     -0.559303      2.751806
Ti       9.63804      5.81692     15.49694         0.690636      0.015696      3.386529
Ti       9.66272      5.87928      6.72583         0.142311      0.147820      2.857455
Ti       9.72087      5.83724     11.11315        -0.590664      0.333641      1.628874
Ti       9.71279      9.74351      2.33505         0.270920     -0.300660      1.958661
Ti       9.65205      9.71909     15.57410         0.859653      0.360106      0.651443
Ti       9.74981      9.79094      6.71837        -0.471890     -0.811969      2.080888
Ti       9.70110      9.69138     11.17109         0.298931      0.342477      1.723907
O       1.92038      1.84576      0.64682         0.341005      0.329228     -2.589071
O       1.76876      2.04710     13.87208         0.192306     -0.111126     -2.303469
O       1.84814     13.64234      0.62852         0.137175      0.017048     -2.210000
O       2.06024     13.62699     13.86747        -0.022068     -0.014770     -2.017945
O      13.63946      2.07848      0.57492        -0.240733     -0.238352     -1.008512
O      13.52767      1.85809     13.89398         0.288261      0.031459     -0.953561
O      13.62855     13.41102      0.64426         0.194342      0.172484     -2.788732
O      13.65300     13.67210     13.89204        -0.097761     -0.069026     -2.734081
O       1.89178      1.95677      5.01225        -0.304855     -0.390200     -0.912548
O       1.91327     13.64329      5.06914         0.139999     -0.025679     -1.350284
O      13.67662      1.91783      4.96279         0.291711     -0.022212     -1.067475
O      13.61238     13.67492      4.95695         0.122295      0.151967     -1.803160
O       1.89745      1.97703      9.40258         0.335391     -0.374985     -1.084964
O       1.89621     13.72852      9.38247        -0.072250     -0.108760     -2.122100
O      13.51629      1.95155      9.46185         0.109567     -0.174197     -0.879777
O      13.73632     13.70065      9.44152        -0.253662     -0.276797     -1.402958
O       1.87395      5.84646      0.50927         0.215904      0.090605     -2.085193
O       1.92231      5.75735     13.90730         0.114003     -0.128534     -2.961713
O      13.65011      5.74525      0.53991        -0.377106      0.003891     -1.522847
O      13.53867      5.91136     13.85191        -0.059633     -0.103095     -2.571976
O       1.93782      6.05950      5.03494        -0.055598     -0.445049     -1.678581
O      13.67957      5.87915      5.13349        -0.057201     -0.312669     -2.495988
O       1.92812      5.80822      9.41696         0.074403      0.206493     -0.990272
O      13.65671      5.95124      9.46702         0.082726     -0.292703     -0.839497
O       1.91316      9.66949      0.60171        -0.039356      0.304439     -0.766231
O       1.90506      9.78130     13.84944        -0.071728     -0.070551     -1.293510
O      13.68618      9.81682      0.76230        -0.090501     -0.040359     -3.673824
O      13.59245      9.71256     13.86003         0.048146      0.039812     -2.700277
O       1.83282      9.58034      5.01934         0.407642      0.558036     -0.952596
O      13.54018      9.74197      5.01586         0.099233     -0.245189     -1.370962
O       2.00432      9.51557      9.39365        -0.048989      0.439966     -2.030822
O      13.62642      9.59103      9.45683         0.028375      0.433715     -1.816940
O       5.82506      1.95168      0.63622        -0.040625      0.157554     -0.997226
O       5.75581      1.97133     13.76000        -0.033702      0.078830     -1.045632
O       5.96681     13.53191      0.63887        -0.156943      0.231648     -2.076769
O       5.90856     13.68524     13.79933        -0.472888      0.039148      0.970965
O       5.86427      1.77534      5.04160        -0.205738      0.213945     -1.097424
O       5.89866     13.68419      5.03300        -0.108650     -0.225738     -1.528885
O       5.87725      2.02325      9.42270        -0.067012     -0.423511     -1.978761
O       5.87387     13.63240      9.39722        -0.162992     -0.036403     -0.827566
O       5.83307      5.72784      0.63190         0.134516      0.006639     -3.297194
O       5.79770      5.86237     13.92161         0.074146      0.077494     -1.957995
O       5.70549      5.71922      5.06212        -0.156126      0.094449     -1.804281
O       5.90050      5.85374      9.42482        -0.360048      0.368937     -1.844179
O       5.87008      9.83189      0.60178         0.058973     -0.259424     -1.320906
O       5.93721      9.63136     13.85470        -0.351723      0.108816     -1.393790
O       5.86275      9.85610      5.09063        -0.224899      0.118032     -2.731447
O       5.92888      9.77623      9.43640        -0.488879     -0.285909     -0.892106
O       9.68465      1.79509      0.65772        -0.017787      0.485557     -1.222666
O       9.76005      1.94306     13.78841         0.092842     -0.190853     -0.857416
O       9.77355     13.64653      0.55783        -0.333479      0.139759     -1.522510
O       9.77353     13.57042     13.87805        -0.180284      0.195257     -2.009098
O       9.83291      2.13401      5.09788        -0.231018     -0.362459     -2.217187
O       9.83620     13.64997      5.06714        -0.229123     -0.110783     -2.203408
O       9.72460      1.85023      9.41655         0.053671      0.224877     -0.597933
O       9.73737     13.45412      9.40388        -0.187975      0.249655     -2.147541
O       9.65646      5.69790      0.62268        -0.056289      0.187022     -2.030320
O       9.60808      5.72271     13.82822         0.147955      0.387455     -2.416307
O       9.70295      5.87362      5.05566         0.259422     -0.235448     -2.288985
O       9.58444      5.91490      9.42709         0.291504     -0.060971     -1.627715
O       9.76238      9.67833      0.64762        -0.258565      0.094460     -1.619697
O       9.68689      9.80560     13.83299         0.093507     -0.442539     -0.263766
O       9.79950      9.79082      5.02749        -0.022860      0.111239     -1.913494
O       9.70990      9.61258      9.48825        -0.145342      0.363142     -2.050525
O       3.90578      1.87526      2.87423         0.337410      0.161299     -0.257724
O       3.82349      2.07346     15.95073         0.125767     -0.339020      0.005667
O       3.87150     13.66788      2.65532         0.637210     -0.247452      0.425203
O       3.88646     13.71152     16.11550         0.337454     -0.649892      0.002024
O       0.01793      1.81644      2.63814        -0.692754      0.452862      0.586865
O       0.00785      1.85073     16.15520        -0.736165      0.570968     -0.424379
O       0.01530     13.50298      2.75227        -0.217398      0.426724      0.361276
O      15.59738     13.61914     15.89562        -0.446461     -0.141815      0.603588
O       3.83361      1.77571      7.17614         0.269239      0.685732     -0.092045
O       3.86468     13.75999      7.13881         0.401216     -0.115080      0.233164
O      15.55598      1.93401      7.24801        -0.433227      0.035061     -0.427393
O      15.50121     13.63743      7.20151         0.439070     -0.101491      0.046571
O       3.92213      1.90367     11.64461        -0.917121      0.252672     -0.194238
O       3.83425     13.61183     11.53365         0.260443      0.100557      0.169283
O       0.00378      1.84364     11.48120        -0.041023      0.435072      0.657025
O      15.59570     13.58818     11.60193        -0.084321      0.107718      0.229586
O       3.90320      5.73868      2.68704        -0.435128      0.448258      0.165207
O       3.87246      5.89662     16.00038         0.057697     -0.410489      0.469776
O       0.05482      5.70359      2.54185        -1.096176      0.375226      0.737099
O      15.49013      5.77066     15.90635         0.194774      0.510683      0.369944
O       3.84663      5.82151      7.27185        -0.407463     -0.147777     -0.016927
O      15.56589      5.89009      7.17418         0.335780     -0.162081      0.311769
O       3.86906      5.93906     11.50328         0.296574     -0.395299      0.340979
O      15.59314      5.84928     11.59480        -0.101755     -0.413529      0.321532
O       3.91327      9.63910      2.77932        -0.311302      0.375736      0.071076
O       3.91524      9.75906     15.97172        -0.599186     -0.219550      0.199508
O      15.51052      9.65520      2.78201         1.147434      0.593629      0.363840
O      15.54944      9.70582     15.98279         0.233627      0.200030      0.192157
O       3.86689      9.84075      7.13933         0.016070     -0.471347      0.253046
O       0.00420      9.74227      7.17016        -0.126493      0.100123      0.153324
O       3.88785      9.66393     11.58944        -0.033147      0.523194      0.044973
O      15.59634      9.76801     11.54442        -0.279302      0.006829      0.256722
O       7.78973      1.94530      2.81833         0.189695      0.046505      0.137605
O       7.75729      1.87163     15.87593        -0.246417      0.068739      0.304355
O       7.89276     13.57760      2.78369        -0.605637      0.006483      0.123297
O       7.75878     13.78590     15.96876        -0.182318     -0.497491      0.338945
O       7.79052      1.97821      7.06436        -0.346704     -0.182049      0.505378
O       7.78159     13.55162      7.19380        -0.055640      0.255730     -0.116003
O       7.76572      1.84831     11.62210         0.383547      0.363309      0.000134
O       7.78931     13.67914     11.64449        -0.096933     -0.435985     -0.254194
O       7.72820      5.85602      2.77543         0.749973     -0.447169      0.084699
O       7.76650      5.94930     16.02003         0.090344     -0.280761      0.118250
O       7.74367      5.94068      7.02661         0.110207     -0.396817      0.657742
O       7.76348      5.98012     11.47921        -0.065424     -0.455863      0.813915
O       7.77139      9.68076      2.86069         0.183442      0.478491     -0.392031
O       7.81392      9.67792     16.04024        -0.391435     -0.030335      0.133188
O       7.76798      9.74898      7.10527        -0.077848      0.115893      0.358647
O       7.73743      9.78137     11.60308         0.354141     -0.283966      0.178472
O      11.66193      1.94663      2.78947         0.331789     -0.017506     -0.021021
O      11.63826      1.86739     16.03948         0.106586      0.354794      0.154466
O      11.72048     13.62047      2.63832        -0.523160     -0.034560      0.706821
O      11.65776     13.70847     15.89429         0.146036     -0.384333      0.686670
O      11.67854      1.92522      7.07997         0.278622     -0.222202      0.519322
O      11.69082     13.60956      7.07691        -0.260965      0.226551      0.598107
O      11.66248      1.91501     11.53934        -0.056566     -0.169569      0.551983
O      11.66784     13.61425     11.49219         0.170374      0.266224      0.481072
O      11.67926      5.86351      2.63905        -0.027656      0.017162      0.239953
O      11.60309      5.78724     15.93365         0.374394     -0.059303      0.278193
O      11.68895      5.87904      7.19266        -0.480698     -0.107472      0.219302
O      11.63832      5.83571     11.50646         0.568107      0.148547      0.576227
O      11.63644      9.62100      2.75485        -0.276224      0.264175      0.279975
O      11.72278      9.78396     16.04215        -0.454988     -0.324235     -0.003183
O      11.65595      9.67485      7.23487         0.370203      0.674019     -0.108345
O      11.68860      9.71940     11.58411         0.061168     -0.259701      0.358777
O       1.95669      3.85234      2.79883        -0.089788     -0.038387     -0.023623
O       1.79959      3.90877     15.92346         0.430144     -0.332911      0.753095
O       2.04867     15.58614      2.73024        -0.714496     -0.280439      0.474202
O       1.86657     15.58316     15.90896         0.528074      0.459832      0.514266
O      13.62095      3.91163      2.80064         0.161303     -0.541802     -0.010840
O      13.61943      3.83215     15.95173        -0.303426      0.177221      0.160456
O      13.62564     15.54640      2.67483         0.203139      0.350368      0.089921
O      13.63652     15.56220     15.97939        -0.026886      0.099538      0.653886
O       1.83425      3.85573      7.07479         0.349486      0.234677      0.271603
O       1.82128     15.58654      7.20832         0.159682      0.012462     -0.001746
O      13.58633      3.87921      7.34052         0.310552     -0.271442     -0.738455
O      13.63065      0.02488      7.25629        -0.109055     -0.048045     -0.653671
O       1.93241      3.87984     11.38292         0.179040     -0.792699      1.063628
O       1.95055     15.53352     11.61475        -0.042486      0.804692     -0.045388
O      13.57082      3.84821     11.68393         0.413293      0.238088     -0.060110
O      13.64580     15.55718     11.51157        -0.214098      0.336441      0.743478
O       1.87652      7.78485      2.75790         0.207262      0.176854     -0.118907
O       1.91898      7.78187     15.92066        -0.194225      0.364143      0.523693
O      13.58994      7.74026      2.75890         0.339341     -0.504015      0.062699
O      13.60881      7.79820     16.04371        -0.206069     -0.245817     -0.080833
O       1.98504      7.78883      7.19583         0.065921      0.490071      0.181230
O      13.58106      7.81458      7.18295         0.350823      0.087620      0.093838
O       1.97246      7.78094     11.63677        -0.522960      0.058556      0.150923
O      13.74720      7.82142     11.65174        -0.796307     -0.504155      0.290372
O       2.06693     11.67381      2.69086        -0.479856     -0.441417      0.451264
O       1.94538     11.69675     15.83899         0.032534     -0.529281      1.014549
O      13.61100     11.60752      2.79847        -0.123330      0.497739      0.618716
O      13.63369     11.66785     15.99259         0.060586      0.003746      0.101226
O       1.97940     11.74231      7.19775        -0.261804     -0.610162      0.167864
O      13.61670     11.69643      7.06576        -0.116171     -0.379371      0.539429
O       1.92171     11.63077     11.43778         0.217352      0.477436      0.257830
O      13.55576     11.71151     11.49599         0.494640     -0.559173      0.436105
O       5.82720      3.84191      2.85113         0.153352     -0.286704     -0.195975
O       5.82699      3.89016     16.00879         0.192938      0.089063      0.100199
O       5.92569     15.51238      2.74582        -0.117127      0.516679      0.169973
O       5.69943      0.05170     15.94718         0.295553     -0.238659      0.211295
O       5.82421      3.89140      7.25418        -0.299781     -0.623707     -0.185930
O       5.88853     15.55935      7.29585        -0.063977      0.393562     -0.258003
O       5.84472      3.93470     11.46077        -0.180921     -0.001762      0.696926
O       5.79698     15.59232     11.53878        -0.090606     -0.357205      0.101288
O       5.84210      7.73650      2.80137        -0.002093      0.623146     -0.365240
O       5.83029      7.80726     16.15598        -0.040572      0.054840     -0.228371
O       5.74042      7.76917      7.03925        -0.096957      0.814004      0.525246
O       5.80356      7.84452     11.66647         0.198183     -0.507359     -0.240130
O       5.81202     11.66472      2.73872         0.091385     -0.070887      0.565636
O       5.85882     11.66760     15.93118         0.116088      0.498416      0.336191
O       5.73096     11.74650      7.23568         0.202536     -0.271349     -0.106131
O       5.82119     11.72437     11.61539        -0.189798     -0.352034      0.084615
O       9.79184      3.95744      2.87081        -0.488728     -0.681536     -0.187257
O       9.59127      3.85811     15.86825         0.229755      0.051348      0.498375
O       9.73415     15.57815      2.77102         0.203049      0.020222      0.314249
O       9.69818     15.58924     16.02870         0.186175      0.095857      0.060610
O       9.74675      3.91541      7.31821        -0.214194     -0.065663     -0.397815
O       9.64449     15.56136      7.19198         0.416757     -0.072619     -0.214897
O       9.68742      3.86848     11.55319        -0.068885      0.009264      0.089985
O       9.70749     15.51505     11.50460         0.333681      0.819381      0.437077
O       9.64691      7.72670      2.85648         0.410602      0.692247     -0.359506
O       9.82741      7.79332     16.10872        -0.441151     -0.061538     -0.551010
O       9.68159      7.87226      7.16205         0.122830     -0.670220      0.162708
O       9.70528      7.79469     11.55667         0.221819     -0.171225      0.705016
O       9.77710     11.66751      2.73283        -0.056544     -0.228549      0.048146
O       9.66822     11.66883     16.01209         0.040087      0.227935      0.217742
O       9.66724     11.64955      7.26283         0.598639      0.361922     -0.190855
O       9.78840     11.64007     11.58808        -0.417092      0.333510      0.165226
