  # total energy = -7881.03277154 
CRSYTAL
PRIMVEC
    15.6000000000000000    0.0000000000000000    0.0000000000000000
     0.0000000000000000   15.6000000000000000    0.0000000000000000
     0.0000000000000000    0.0000000000000000    17.640000000000000
PRESSURE
-2.8981 -2.63274 3.64136 -0.067373 0.384818 0.000372
PRIMCOORD
320 1
Pb       3.92802      3.86430      4.34176        -0.332799     -0.265490      0.207411
Pb       3.98248      3.97088     17.55518         0.007941     -0.881784      0.251513
Pb       3.75084     15.45275      4.33314         0.698685      0.644080      0.406780
Pb       3.81262     15.59291      0.02531         0.232111      0.414964     -0.007446
Pb      15.52551      3.83882      4.31973        -0.065055      0.356673      0.260639
Pb       0.05565      3.92754     17.55379        -0.125175     -0.523879     -0.129615
Pb      15.59288     15.55695      4.32763         0.141880     -0.022210      0.447520
Pb      15.44379     15.57492     17.62266         0.923027      0.075280     -0.274206
Pb       3.83875      3.99262      8.73368        -0.114468     -0.601514      0.831275
Pb       3.88603     15.57928      8.74447         0.345719      0.186795      0.699033
Pb      15.56297      3.96762      8.80690         0.468809     -0.517296      0.646211
Pb      15.49817      0.03031      8.64695         0.671855      0.120418      0.713526
Pb       3.94370      3.82151     13.22840         0.124665      0.376094      0.046658
Pb       3.93558      0.02416     13.14337         0.014668     -0.219941     -0.058167
Pb       0.03570      3.97351     13.13011        -0.361017     -0.853428      1.096932
Pb      15.49924     15.53285     13.19262        -0.025106      0.493285      0.078100
Pb       3.96362      7.74920      4.37633         0.043402      0.204135     -0.250617
Pb       4.00110      7.71515     17.52021        -0.737896      0.498404      0.827033
Pb       0.02063      7.65263      4.25599        -0.423369      0.648047      1.068682
Pb       0.07732      7.72318     17.47661        -0.419753      0.520346      0.318179
Pb       3.84399      7.75291      8.73545        -0.199915      0.928765      0.791026
Pb      15.52356      7.81284      8.74613         0.346999     -0.100931      0.529248
Pb       3.92515      7.74840     13.16005        -0.174996      0.192276      0.108676
Pb       0.06271      7.71900     13.13010        -0.113257      0.883791      0.428268
Pb       3.89188     11.63581      4.30175         0.458227     -0.075311      0.537559
Pb       3.83237     11.69992     17.54508         0.118034     -0.234298      0.420400
Pb       0.03752     11.77555      4.29470        -0.194858     -0.653986      0.898051
Pb       0.01118     11.71126     17.46829         0.300326     -0.300316      0.438903
Pb       3.82930     11.79684      8.85466         0.255935     -0.506795     -0.037584
Pb      15.56101     11.72621      8.71210         0.306906     -0.123200      0.432513
Pb       3.87006     11.72877     13.14402         0.163904     -0.414259      0.084367
Pb      15.48436     11.81017     13.15193         0.783012     -0.747648      0.173325
Pb       7.72247      3.72427      4.32584         0.564275      0.466332      0.454793
Pb       7.79722      3.94271     17.62835         0.032875     -0.648896     -0.212197
Pb       7.63748     15.51403      4.38400         0.595490      0.304414      0.644458
Pb       7.70575      0.02364     17.53255         0.362918     -0.093780      0.372030
Pb       7.63626      3.93169      8.80386         0.663293     -0.168650      0.323879
Pb       7.73428      0.05784      8.77995        -0.191194     -0.310083     -0.125240
Pb       7.79189      3.90552     13.27528        -0.010977     -0.357346     -0.492199
Pb       7.81611      0.08848     13.07988        -0.046023      0.259809      0.719510
Pb       7.81397      7.66420      4.33306        -0.072857      0.009736      0.227871
Pb       7.77033      7.73450     17.52947         0.395461      0.335232      0.612139
Pb       7.71532      7.81380      8.77381         0.600584      0.352115      0.319249
Pb       7.82432      7.75930     13.18718        -0.240886      0.163753     -0.152813
Pb       7.74776     11.53804      4.29349        -0.032756      0.533781      0.633918
Pb       7.79695     11.63753     17.41400        -0.108688      0.157441      1.178161
Pb       7.77037     11.74182      8.61727         0.412735     -0.180929      1.190997
Pb       7.73225     11.78131     13.06530         0.105364     -0.719322      1.028703
Pb      11.76091      3.79432      4.24983         0.052030      0.268736      0.660846
Pb      11.63256      3.81302     17.62446        -0.235756      0.066975     -0.088193
Pb      11.65860     15.51997      4.29410         0.278526      0.286677      0.958939
Pb      11.67368     15.54796     17.62973        -0.478390      0.168767     -0.548508
Pb      11.69001      3.90385      8.67490        -0.537572     -0.171556      1.718724
Pb      11.67295      0.00673      8.72563        -0.078941      0.297606      0.059061
Pb      11.72968      3.89301     13.10432        -0.349487     -0.213424      1.052232
Pb      11.62457      0.04118     13.11625         0.489838     -0.130207      0.881254
Pb      11.64158      7.77063      4.34274         0.154278      0.013393      0.019306
Pb      11.65560      7.74111     17.58247         0.155716      0.435085     -0.124749
Pb      11.68302      7.80127      8.73222        -0.110941     -0.084080      0.335839
Pb      11.65621      7.78825     13.07580         0.262643     -0.046421      0.797272
Pb      11.67335     11.48282      4.33015        -0.036614      0.841302      0.354578
Pb      11.59450     11.71156     17.55306         0.527809     -0.697058      0.506637
Pb      11.63853     11.78472      8.87250        -0.251727     -0.380006     -0.263275
Pb      11.64222     11.70717     13.22563         0.020170     -0.222161      0.506949
Ti       1.93791      2.05030      2.39360         1.291734     -0.523576      1.238186
Ti       2.01029      1.91851     15.62066        -0.501188      0.017918      3.651339
Ti       2.02167     13.60065      2.38584        -0.281655      0.358826      0.432905
Ti       1.98327     13.71072     15.60517         0.021485     -0.057890      1.625192
Ti      13.71844      1.87221      2.26417        -0.869279      0.998880      2.291813
Ti      13.67599      1.90009     15.73423        -0.656879      0.146330     -0.909660
Ti      13.71248     13.62734      2.38197        -0.538925     -0.648480      1.775595
Ti      13.67991     13.57969     15.72231        -0.280388      0.837435     -0.833973
Ti       2.00706      1.99914      6.72718        -0.329563     -0.392933      2.119332
Ti       1.97117     13.66195      6.82957        -0.046222     -0.016813      0.910433
Ti      13.65313      2.00519      6.85423        -0.547288     -0.257216      0.583809
Ti      13.63020     13.57733      6.86437         0.006283      0.361357      0.855594
Ti       1.96275      1.87569     11.20767        -0.671359      0.359748      0.030571
Ti       1.93944     13.67625     11.27150         0.563430     -0.525857     -1.202889
Ti      13.68536      1.90352     11.22106         0.447258     -0.105582      0.781355
Ti      13.63162     13.59698     11.27686         0.044533     -0.153225     -0.284771
Ti       1.88214      5.87322      2.30971         0.787301     -1.224148      1.483737
Ti       1.91221      5.79032     15.65957         0.690801      0.200034     -1.198640
Ti      13.60768      5.85159      2.35382        -0.254746     -0.150766      3.296304
Ti      13.55379      5.76206     15.67997         0.181287      0.421238     -0.428040
Ti       1.94305      5.87072      6.82778        -0.700568     -0.211178      1.969434
Ti      13.61041      5.81218      6.83909         0.220001      0.244197      1.714276
Ti       1.98664      5.75625     11.26646         0.186422      1.003415     -1.305475
Ti      13.68415      5.76382     11.25156        -0.404099      1.419929     -0.007943
Ti       1.93811      9.68116      2.41805         0.368825      0.163538     -0.507893
Ti       1.95777      9.73304     15.59680         0.341386     -0.280596      1.425199
Ti      13.69925      9.70266      2.36658        -0.455603     -0.274359      2.380100
Ti      13.70530      9.69356     15.55761        -1.014355     -0.428719      1.739828
Ti       1.93078      9.73497      6.81980         0.623723      0.986749      1.413977
Ti      13.70317      9.71537      6.72035        -0.328310      0.262483      4.459645
Ti       1.93620      9.74377     11.23058         0.468361     -0.007668      0.891268
Ti      13.63950      9.75426     11.22343         0.814124     -0.503906      1.093634
Ti       5.88649      1.88790      2.37931        -0.758917      0.218003      0.528609
Ti       5.80480      1.91514     15.55738         0.463043      0.575607      1.991291
Ti       5.91340     13.63375      2.35197        -0.460545     -0.167676      1.034609
Ti       5.77035     13.67680     15.60225         0.608332     -0.324928      1.019457
Ti       5.80531      2.00238      6.77434         0.198520     -1.489313      1.431115
Ti       5.86355     13.59680      6.84121         0.235405      0.520046      1.193362
Ti       5.78795      1.98734     11.16246         1.323954     -0.432748      1.660552
Ti       5.87291     13.70371     11.21548         0.113139     -0.309841     -0.991012
Ti       5.75681      5.79043      2.40052         0.716444      0.007277      0.870369
Ti       5.82055      5.86700     15.68341         0.771342     -1.427185     -2.139676
Ti       5.85012      5.82698      6.75171        -0.366581      0.010963      0.438256
Ti       5.84876      5.80036     11.17980         0.495627     -0.065905      1.432376
Ti       5.86970      9.70774      2.36120        -0.921638      0.015542      0.562146
Ti       5.79010      9.77480     15.60945         0.198890     -0.519845      0.282653
Ti       5.84826      9.65926      6.80317        -0.698623      1.634342      0.952103
Ti       5.83098      9.72789     11.23075        -0.106749      0.120006      1.560611
Ti       9.82082      1.89210      2.40068        -0.743544      0.639705      1.536803
Ti       9.71793      1.89715     15.65154        -0.130899      0.019196      0.225895
Ti       9.76499     13.67573      2.46026        -0.533382     -0.355827      0.245080
Ti       9.70137     13.59599     15.63875         0.700602      0.862087      1.576023
Ti       9.67015      2.01114      6.83632         0.510395     -0.688754      0.507073
Ti       9.77874     13.71825      6.81139        -0.560390     -0.649235      3.069540
Ti       9.83380      1.92974     11.17729        -1.735148      0.427843      1.636213
Ti       9.78046     13.63795     11.28771        -0.078481     -0.433823     -0.538445
Ti       9.72489      5.77834      2.43707        -0.025120     -0.324068      0.491196
Ti       9.67686      5.82169     15.60353         0.774238     -0.594226      2.615335
Ti       9.69149      5.82098      6.82072         0.450035      0.098287      1.765126
Ti       9.76625      5.74595     11.19875        -0.687727      0.337251      0.625309
Ti       9.66647      9.70656      2.40374         0.811698     -0.184085      0.672126
Ti       9.73121      9.73695     15.61385         0.978810     -0.783483      0.512988
Ti       9.78274      9.73532      6.83506        -0.168122      0.490968      0.846928
Ti       9.75819      9.76700     11.29099        -1.165869     -0.270430      1.706471
O       2.11519      1.88610      0.70591        -0.455078      0.054524     -0.666427
O       2.04076      1.91582     13.99846         0.017004      0.021579     -4.446691
O       2.00353     13.63776      0.66072        -0.108195     -0.010482     -0.610510
O       1.99407     13.60385     13.92674        -0.047005      0.379325     -1.842319
O      13.65524      1.86812      0.57657         0.229879     -0.218098     -1.497086
O      13.59476      1.76208     13.99194         0.082533      0.229266     -0.317146
O      13.85530     13.63247      0.68272        -0.292376      0.096695     -1.100170
O      13.74743     13.68804     13.96376        -0.171657     -0.222088      0.194176
O       2.04927      2.04958      5.00466        -0.493739     -0.272971     -0.173845
O       1.91254     13.68158      5.08807         0.205839     -0.145935     -0.254097
O      13.58773      2.18639      5.15192         0.391818     -0.176078     -0.759391
O      13.62658     13.65385      5.18935         0.021508      0.077643     -1.828410
O       1.91035      1.91122      9.49935         0.109221      0.068189      0.059636
O       2.01363     13.67894      9.52891        -0.119608     -0.225671     -0.032202
O      13.76198      1.93016      9.53106        -0.281825     -0.110615     -0.951758
O      13.61675     13.54413      9.56456        -0.131067     -0.006173     -1.411586
O       1.91927      5.84842      0.61058        -0.152769     -0.077328     -1.526390
O       2.03918      5.83663     13.89425        -0.402195     -0.318549      0.655299
O      13.60918      5.94776      0.71594         0.211620      0.027809     -3.231868
O      13.64622      5.72684     13.95268        -0.179988      0.124451     -0.199802
O       1.93286      5.68628      5.16237         0.015482      0.284386     -1.421181
O      13.69197      5.72291      5.16027        -0.000992      0.033698     -1.731831
O       1.93381      5.83658      9.46807         0.206633     -0.205824      1.129788
O      13.67724      5.85537      9.53272         0.129239     -0.091828     -0.050158
O       1.98385      9.63605      0.67979        -0.317220      0.371562      0.649731
O       2.05198      9.70804     13.92298        -0.022291      0.011568     -0.970930
O      13.68095      9.55304      0.71104         0.080958      0.380020     -1.818084
O      13.65485      9.67646     13.88201         0.045407      0.232490     -1.537231
O       2.00231      9.74513      5.14070         0.118417      0.032060     -2.288788
O      13.69362      9.56094      5.10430        -0.346325      0.098086     -3.675231
O       2.03265      9.72429      9.52351        -0.467204      0.225350     -1.079569
O      13.70383      9.79747      9.51232        -0.100964     -0.138871     -0.172676
O       5.76208      1.81455      0.63883         0.239413      0.193960      0.357376
O       5.88375      2.02875     13.85863        -0.337307     -0.261780     -1.015758
O       5.89625     13.81241      0.66101        -0.145114     -0.344563     -0.945420
O       5.72661     13.52108     13.91959         0.212997      0.412766     -1.035243
O       5.93838      1.97473      5.06535        -0.099439      0.133097     -0.558943
O       5.77531     13.60382      5.14388         0.079652     -0.023690     -1.960221
O       5.75961      1.88385      9.48139         0.351393      0.348910     -1.728780
O       5.96090     13.66810      9.44420        -0.146254      0.037579      1.214039
O       5.85907      5.80057      0.65762        -0.039170     -0.104619     -0.327311
O       5.86131      5.75111     13.89553        -0.014722      0.223597      0.914712
O       5.75734      5.79377      5.01170         0.023398      0.267552      0.308719
O       5.84244      5.86383      9.45576        -0.071080     -0.066752     -0.438759
O       5.93263      9.77988      0.66437        -0.092158     -0.361142     -0.978162
O       5.74395      9.66928     13.88709         0.084056      0.075209      0.437766
O       5.71922      9.67314      5.07568         0.333021     -0.057146     -0.402482
O       5.91877      9.75958      9.53918        -0.041344     -0.397045     -1.301171
O       9.70484      1.89667      0.71937         0.250954     -0.180864     -1.453306
O       9.61363      1.87061     13.92125         0.438660      0.049670     -0.328075
O       9.75731     13.66329      0.74634         0.155017     -0.099794     -0.747461
O       9.78439     13.57202     13.97161         0.195900      0.067227     -2.155116
O       9.64150      1.96327      5.11983         0.211051      0.072549     -0.683501
O       9.80241     13.80684      5.17042         0.078751     -0.204401     -3.253832
O       9.81536      1.93880      9.50035        -0.240157     -0.100772     -1.447304
O       9.87762     13.53265      9.55900        -0.007168      0.387529     -0.130520
O       9.77863      5.69001      0.73240        -0.288509      0.308248     -0.950180
O       9.60137      5.75285     13.93515         0.242875      0.155878     -1.814419
O       9.69110      5.84796      5.13847         0.098270      0.141057     -1.298833
O       9.74653      5.79338      9.48221        -0.041957      0.081785     -0.360878
O       9.80368      9.68022      0.70290        -0.351281      0.268964     -0.520957
O       9.69563      9.75194     13.90372         0.103329     -0.162770     -0.682350
O       9.61668      9.65411      5.12612         0.413581      0.222247     -1.638718
O       9.66626      9.73997      9.62366         0.368621     -0.051811     -1.534735
O       3.91511      1.88026      2.93781        -0.552871      0.270136     -0.561601
O       3.92950      2.01931     16.04765         0.476848     -0.470749     -0.047682
O       3.92401     13.60205      2.78147         0.035378      0.354932      0.005308
O       3.90853     13.69787     16.03529         0.002308     -0.551947      0.321151
O      15.58815      1.98786      2.81924         0.278790     -0.548032     -0.348006
O      15.58360      1.89651     16.01365         0.416906      0.219478      0.602959
O      15.58140     13.58807      2.87462        -0.066294      0.375711     -0.240174
O       0.09779     13.72024     16.03947        -1.091979     -0.179122      0.435519
O       3.94673      1.94754      7.29642        -0.929479      0.388586     -0.798414
O       4.01784     13.66073      7.43008        -1.453622     -0.379816     -0.917868
O       0.00374      1.97798      7.27764         0.129514     -0.075421     -0.762936
O       0.03094     13.67193      7.24190        -0.276623      0.172844     -0.063578
O       3.90710      1.93252     11.60815        -0.620009      0.039167      0.405206
O       4.00141     13.68607     11.58760        -0.667955     -0.023476      0.412138
O      15.55894      1.94215     11.69395        -0.030820     -0.280533      0.153955
O       0.04444     13.62752     11.57743        -0.518990     -0.256920      0.665288
O       3.87148      5.70561      2.81006        -0.269614      0.743022     -0.242731
O       3.97744      5.78805     16.04049        -1.103575      0.163306      0.244154
O      15.56424      5.81651      2.88130         0.343553     -0.184840     -0.764038
O      15.59831      5.75394     16.02525         0.164399      0.156542      0.223980
O       3.89347      5.91181      7.34776        -0.285760     -0.389873     -1.047338
O       0.00691      5.76768      7.37820         0.137637      0.658433     -0.861848
O       3.85424      5.79563     11.67495         0.727057     -0.503363     -0.295655
O       0.06907      5.88066     11.77055        -0.605829     -0.812911     -0.692986
O       3.91986      9.71383      2.81375        -0.900207     -0.380724      0.109338
O       3.91605      9.69968     16.21124        -0.106978      0.195841     -0.699153
O      15.57395      9.64810      2.87519         1.092926      0.572670     -0.356483
O       0.03042      9.68462     16.01012         0.182989      0.166218      0.016737
O       3.91466      9.82056      7.28421         0.225822     -0.508391     -0.119689
O       0.01671      9.83440      7.17908        -0.242349     -0.419002      0.249362
O       3.87432      9.72833     11.68196         0.554433     -0.167255     -0.049498
O       0.05140      9.80077     11.76537        -0.855782     -0.170422     -0.438762
O       7.83065      1.94883      2.82218        -0.466037     -0.014029     -0.304059
O       7.76012      1.90897     16.17124        -0.051953      0.173575     -0.488144
O       7.77626     13.61712      2.83764        -0.189574      0.154438      0.166645
O       7.87238     13.55016     16.06678        -1.264680      0.187044     -0.334026
O       7.74046      1.97691      7.35948        -0.187202      0.342962     -0.402516
O       7.81772     13.69582      7.25701         0.352218     -0.106327     -0.265050
O       7.80046      1.93216     11.64550         0.138247     -0.015472     -0.335597
O       7.83881     13.64293     11.69760        -0.505192      0.070604     -0.362692
O       7.78639      5.75105      2.92962         0.039335      0.042329     -0.612234
O       7.80374      5.82266     16.14362        -0.199100     -0.091006     -0.194922
O       7.71675      5.82055      7.25995         0.424313      0.156007     -0.362047
O       7.83958      5.65123     11.60109        -0.568901      0.706449     -0.073686
O       7.71983      9.62371      2.88097         0.566493      0.555413     -0.209584
O       7.86377      9.71838     16.10421        -1.143905     -0.160720     -0.396518
O       7.90889      9.72297      7.31857        -1.775378     -0.092064     -0.288841
O       7.74495      9.80282     11.77183         0.461895     -0.720379     -0.290042
O      11.80613      1.93666      2.78170        -0.317365     -0.515400     -0.220266
O      11.66624      1.95489     16.12074        -0.098054     -0.478105      0.152557
O      11.63901     13.64102      2.86190         1.104686     -0.008379     -0.200522
O      11.78905     13.61163     16.20414        -0.431392      0.116122     -0.359737
O      11.65648      2.02249      7.30245         0.371209     -0.378571     -0.373107
O      11.70732     13.59915      7.38832         0.249116      0.464623     -0.466312
O      11.71551      1.93771     11.59837         0.424230     -0.570180      0.240191
O      11.72029     13.56667     11.78624        -0.365661      0.511681     -0.259292
O      11.65692      5.89684      2.87083         0.461494      0.012745     -0.100764
O      11.67328      5.78242     16.13782        -0.051261      0.067689     -0.394437
O      11.67762      5.77090      7.30384        -0.208631      0.886121     -0.719148
O      11.71708      5.85393     11.76441        -0.060237     -0.147991     -0.704392
O      11.66609      9.71299      2.88673         0.013234     -0.215725     -0.284997
O      11.64776      9.77055     16.05437         0.793475     -0.503382      0.047188
O      11.67306      9.64001      7.32530         1.012832      0.672444     -0.645353
O      11.67882      9.74981     11.79048         0.468585     -0.170273     -0.865867
O       1.94548      3.93156      2.73266        -0.283742     -0.625141     -0.006391
O       2.02191      3.83667     16.08943        -0.517627      1.097359      0.148826
O       1.88043     15.46485      2.91015         0.046877      0.949070     -0.421084
O       2.06318      0.04378     16.05048        -0.317939     -0.855929      0.113237
O      13.66885      3.89947      2.68522        -0.098167     -0.327899      0.155390
O      13.59894      3.85877     16.16233         0.434386      0.330486      0.016311
O      13.68971     15.58717      2.88976         0.105203     -0.365024     -0.762301
O      13.59892     15.59097     16.13922         0.334035     -0.793598      0.456845
O       1.92993      3.83722      7.38526         0.423635      0.491328     -1.007761
O       2.03798     15.58897      7.33171        -0.515735      0.472017     -1.065525
O      13.62049      3.96139      7.47552         0.557327     -0.687871     -1.145933
O      13.55376      0.07512      7.17738         0.358422     -0.396326      0.298587
O       1.83293      3.81909     11.75139         1.012307      0.534832     -0.647017
O       1.94711     15.59141     11.60618         0.144713      0.066164      0.710290
O      13.54832      3.89108     11.68269         0.998750     -0.428415     -0.365025
O      13.70800     15.43584     11.59981        -0.426750      2.051317      0.455147
O       1.92304      7.68595      2.77782         0.315622      1.318492      0.265395
O       2.05628      7.71596     16.03965        -0.479734      0.093905      0.010155
O      13.66852      7.78464      2.91072        -0.286447     -0.249306     -0.168729
O      13.66225      7.81446     16.05015        -0.125327     -0.807667     -0.004351
O       1.87100      7.87517      7.20663         0.382428     -1.466571      0.022100
O      13.68838      7.76962      7.31750        -0.173333     -0.077163     -0.526653
O       2.02767      7.79290     11.60285        -0.562403     -0.572123      0.371625
O      13.76961      7.75469     11.63225        -0.655088      0.433632      0.081085
O       1.98403     11.72871      2.86557        -0.445357     -1.230281     -0.338453
O       1.91651     11.68852     16.03843         0.459754     -0.078989      0.080389
O      13.64779     11.69324      2.90833        -0.071543     -0.043657     -0.575491
O      13.66040     11.67493     16.06885         0.488453      0.019749     -0.055236
O       1.97344     11.77937      7.29518         0.039618     -0.165138     -0.126687
O      13.74819     11.67696      7.13997        -0.672086     -0.097022      0.141460
O       1.99407     11.71769     11.71220        -0.094339      0.274474     -0.222455
O      13.61272     11.67684     11.67836         0.213019     -0.451871      0.299140
O       5.79874      3.87434      2.98417         0.382897     -0.485150     -1.229925
O       5.87018      3.89150     16.05485         0.172647     -0.075255      0.253582
O       5.82462      0.05306      2.94058         0.111072     -1.135842     -0.639689
O       5.86200     15.57787     15.96957        -0.071239     -0.180575     -0.158964
O       5.77613      3.94255      7.29650         0.120779     -0.022910     -0.605932
O       5.82461     15.57726      7.21838         0.402433      0.935865     -0.054664
O       5.88514      3.82503     11.67851        -0.599645      1.034413     -0.367642
O       5.87708      0.02227     11.70897        -0.196494     -0.427464     -0.344203
O       5.80330      7.69145      2.82231        -0.067839      0.320686     -0.004933
O       5.83181      7.75576     16.10254         0.476478      0.663625     -0.301091
O       5.79863      7.80372      7.22280         0.360958     -0.558307     -0.161310
O       5.88827      7.65945     11.74736        -0.039707      0.421518     -0.694644
O       5.77303     11.64762      2.74907         0.629571      0.352893      0.091205
O       5.79585     11.62790     16.07568         0.205548      0.758042     -0.143557
O       5.90691     11.68432      7.26857        -0.153229     -0.623948     -0.426857
O       5.81974     11.60976     11.73510        -0.045313      1.182518     -0.611472
O       9.90153      3.84672      2.82475        -0.787306     -0.041430     -0.086392
O       9.72996      3.79535     16.10944        -0.244168      0.965986      0.037376
O       9.72787      0.02368      2.95400         0.094296     -0.502804     -0.523986
O       9.75157     15.55222     16.02914         0.238360     -0.225577      0.419493
O       9.75723      3.86779      7.30886        -0.784211      1.076788     -0.406279
O       9.68939      0.04103      7.27914         0.600337     -0.095678      0.188487
O       9.74663      3.83522     11.73038         0.582615      0.186713     -0.431788
O       9.69879     15.56241     11.68999         0.748222      0.236025     -0.376121
O       9.66969      7.80100      2.79599         0.163755     -0.398416      0.288134
O       9.74335      7.68965     16.10540        -0.055345      0.623772     -0.334539
O       9.74007      7.86250      7.29926        -0.077238     -2.026540      0.057976
O       9.66663      7.74980     11.70265         0.373402     -0.010286     -0.166022
O       9.70038     11.69853      2.95001        -0.042263     -0.514498     -0.366829
O       9.86718     11.62550     16.06799        -0.869029      0.828746     -0.028245
O       9.81307     11.70972      7.25232        -0.095154      0.030254     -0.232454
O       9.75894     11.71648     11.69505         0.124282     -0.296397      0.201305
