  # total energy = -7879.18665370 
CRSYTAL
PRIMVEC
    15.2000000000000000    0.0000000000000000    0.0000000000000000
     0.0000000000000000   15.2000000000000000    0.0000000000000000
     0.0000000000000000    0.0000000000000000    17.000000000000000
PRESSURE
7.48618 7.48511 1.63124 -0.287166 0.024392 0.021155
PRIMCOORD
320 1
Pb       3.81860      3.63071      4.12717        -0.462363      0.727367      0.118172
Pb       3.82392      3.73608     16.87814        -0.045612      0.250026      0.322014
Pb       3.75367     15.16671      4.16284         0.557605     -0.238198      0.035556
Pb       3.62963     15.19076     16.91728         0.716704     -0.286540     -0.202797
Pb       0.02579      3.61977      4.17661         0.106813      0.488077      0.135232
Pb      15.16366      3.76048      0.06700        -0.145233      0.332635     -0.295481
Pb      15.15844     15.14412      4.32275        -0.041915      0.156460     -0.365536
Pb      15.03009     15.19070      0.10084        -0.052725     -0.199673     -0.425891
Pb       3.80191      3.91388      8.58164         0.214522     -0.544339     -0.620940
Pb       3.79575     15.06072      8.64566         0.118184      0.461912     -0.189413
Pb       0.14512      3.77687      8.53422        -0.336543      0.049465     -0.713478
Pb      15.14468     15.09620      8.34012         0.293106      0.837091      0.057424
Pb       3.71592      3.82398     12.68216         0.210837     -0.180315      0.590582
Pb       3.61403      0.10717     12.80050         0.330020     -0.631936     -0.095562
Pb      15.06983      3.97836     12.68649         0.107147     -0.754389      0.058847
Pb      15.15869      0.16950     12.82099         0.082340     -0.220611     -0.691633
Pb       3.81225      7.48362      4.17259        -0.173551     -0.154068     -0.501700
Pb       3.72954      7.53021     16.83250         0.083274      0.004376      0.733265
Pb       0.00821      7.63671      4.25752         0.345684     -0.730175     -0.429447
Pb      14.96774      7.55818     16.98966         0.749501     -0.465589      0.311259
Pb       3.85895      7.68254      8.47758         0.178732     -0.913581      0.414462
Pb       0.13100      7.59072      8.41593        -0.670552     -0.434286      0.152652
Pb       3.74902      7.63456     12.73244         0.316264      0.270375     -0.245200
Pb       0.05176      7.66587     12.68155        -0.347911     -0.212744     -0.041567
Pb       3.81236     11.16446      4.17927         0.344911      0.731883      0.132531
Pb       3.78313     11.34625      0.14365         0.321424      0.166731     -0.487171
Pb       0.14270     11.31445      4.16127        -0.442625     -0.039755      0.473859
Pb      15.13139     11.36763      0.08989        -0.332944      0.284509     -0.052505
Pb       3.85077     11.36245      8.56669        -0.188531      0.034925     -0.245212
Pb       0.11158     11.46515      8.33664        -0.081036     -0.674816      0.538983
Pb       3.69468     11.42958     12.81995         0.650835      0.177073      0.158252
Pb       0.03267     11.37970     12.91086         0.028163      0.593935     -0.568001
Pb       7.52907      3.69756      4.32154        -0.138564     -0.188220      0.036220
Pb       7.54581      3.70704     16.85056        -0.038623      0.386241      0.057839
Pb       7.60682     15.07357      4.23429         0.128737      0.269439      0.449546
Pb       7.62468     15.18027     16.90306        -0.149780     -0.099856     -0.231400
Pb       7.44329      3.74973      8.73547         0.120667      0.298852     -0.999076
Pb       7.65440     15.18764      8.53275        -0.263725      0.161709     -0.412410
Pb       7.65334      3.92495     12.80395        -0.244549     -0.127018     -0.377690
Pb       7.53829     15.08946     12.80370        -0.347488      0.359827     -0.778417
Pb       7.68371      7.50074      4.12007        -0.416597      0.493501      0.446792
Pb       7.67000      7.69180     16.95503        -0.843820     -0.262199      0.014807
Pb       7.51772      7.60075      8.50907        -0.015845     -0.235583      0.173702
Pb       7.49568      7.66210     12.68117         0.153281     -0.242085      0.000346
Pb       7.61134     11.33152      4.36773        -0.415904     -0.177555     -0.398157
Pb       7.59227     11.38541     16.88864        -0.077060      0.080680      0.249321
Pb       7.68430     11.39272      8.66900         0.014742      0.028732     -0.647432
Pb       7.59140     11.42225     12.76081        -0.241276     -0.162356     -0.194570
Pb      11.22725      3.74606      4.40407         0.446264     -0.175655     -0.443685
Pb      11.25905      3.64284      0.00790         0.226554      0.684597     -0.446290
Pb      11.32904     15.14222      4.25203        -0.092967      0.345404      0.248899
Pb      11.36182      0.09660      0.08682        -0.094664     -1.016334     -0.311831
Pb      11.43412      3.88253      8.52763        -0.415015      0.141674      0.142096
Pb      11.48602      0.03064      8.27075        -0.160315     -0.423253      0.628700
Pb      11.32909      3.83901     12.72736         0.077043      0.089567     -0.367061
Pb      11.44931     15.18843     12.60027         0.452127      0.619426     -0.680205
Pb      11.30049      7.58669      4.27898         0.110410     -0.267919      0.091016
Pb      11.36935      7.59632     16.96459         0.003671     -0.337347     -0.233815
Pb      11.35039      7.55477      8.59643         0.084810     -0.047998     -0.593646
Pb      11.47355      7.69853     12.78492        -0.432149     -0.367289     -0.458609
Pb      11.26072     11.26059      4.27086         0.337582      0.125347      0.432926
Pb      11.34870     11.50084     16.96358         0.386253      0.042743      0.241864
Pb      11.48568     11.37814      8.37838         0.022190      0.138177      0.285994
Pb      11.41382     11.58850     12.54680         0.166201     -1.221946      0.164447
Ti       1.85833      1.77776      2.11672         0.426311      1.558601      0.661628
Ti       1.83530      1.90975     15.01361        -0.809170     -0.757294     -0.217438
Ti       1.95396     13.25815      2.26479         0.137584     -0.600641      0.125850
Ti       1.88052     13.17433     15.09277         0.369268      1.032705     -1.516698
Ti      13.21963      1.84408      2.28913         0.280983     -0.244632      0.122674
Ti      13.16383      1.83070     14.92574         1.473069      1.174205      0.637715
Ti      13.31975     13.15812      2.39720         0.166907      0.321407     -1.479220
Ti      13.31579     13.31585     14.94546        -0.496548     -0.451152      1.238171
Ti       1.97681      1.83976      6.47852        -1.570005      1.010999      0.256961
Ti       2.04371     13.23690      6.44535        -0.856903     -0.446513     -1.356268
Ti      13.26011      2.00870      6.48417         1.263854     -1.279262     -0.427461
Ti      13.41322     13.18187      6.34616        -0.782846      0.756998      0.929406
Ti       1.82214      1.94387     10.72816        -0.336903     -0.635487      0.555061
Ti       1.89546     13.27865     10.83288        -0.116005      1.038284      0.975341
Ti      13.24028      2.03097     10.57054         0.374842     -1.382705      0.494712
Ti      13.44764     13.28645     10.58725         0.044367      1.104629      0.077955
Ti       1.81758      5.63713      2.19719         0.096630      0.050821     -0.136758
Ti       1.83435      5.65352     14.91180        -0.290767      0.058738      0.848518
Ti      13.19825      5.61201      2.35350         1.835528     -0.691887     -0.619341
Ti      13.24002      5.58400     15.05938        -0.876228      0.183896     -0.793445
Ti       1.94589      5.61037      6.42819        -0.314112      0.118577     -1.274900
Ti      13.30569      5.65138      6.46854         0.048742      0.924403     -0.029588
Ti       1.91242      5.72315     10.70926        -0.999559      0.162003     -0.152928
Ti      13.27828      5.82291     10.67641        -0.432663     -1.053547     -1.180552
Ti       1.90669      9.41967      2.19004         0.050855     -1.086211     -0.613033
Ti       1.81782      9.43538     14.98246         0.700923      0.245031     -0.079280
Ti      13.25041      9.35505      2.20204         0.400312      0.777084     -0.424784
Ti      13.21433      9.49123     14.93876         0.388581      0.236406      1.314047
Ti       1.92544      9.37018      6.49375        -0.086796      0.937054     -1.128726
Ti      13.34766      9.40465      6.45473        -0.917842      0.392008     -0.135206
Ti       1.84929      9.58582     10.75068         0.742889     -0.740972     -0.611862
Ti      13.32668      9.55519     10.59495        -0.949902     -0.347468      1.185025
Ti       5.73606      1.86600      2.13414        -0.525012     -0.442224     -0.140825
Ti       5.68603      1.88530     14.84606        -0.161523     -0.324922      0.011738
Ti       5.74182     13.30660      2.20798        -0.668682     -1.313159     -0.539526
Ti       5.72157     13.31273     14.99941        -0.989830     -0.533301      0.599490
Ti       5.57593      1.87706      6.54987         1.539648     -0.086834      0.746892
Ti       5.73875     13.31067      6.57360         0.198826     -0.224595     -1.069312
Ti       5.65510      1.94056     10.83017        -0.001783     -0.766086     -0.427356
Ti       5.70403     13.32271     10.75158        -0.446627      0.389547      0.311320
Ti       5.70901      5.62433      2.14329        -0.852282      0.991865     -1.767161
Ti       5.62504      5.69029     14.87341         0.826699     -0.307821      0.372611
Ti       5.65370      5.68125      6.44794         0.198678     -0.435375      1.131749
Ti       5.60316      5.68042     10.73201         1.304450      1.626838     -0.506480
Ti       5.82113      9.47301      2.21134        -0.825427      0.082897      0.242983
Ti       5.64677      9.49855     14.96592         0.801617      0.078799     -0.803075
Ti       5.66525      9.53811      6.56603         0.500621     -0.253570     -1.008645
Ti       5.65475      9.57001     10.78462         0.310097     -0.883348     -0.108999
Ti       9.46472      1.88107      2.23181         0.025625     -1.076509      0.048812
Ti       9.48850      1.80745     14.83158        -0.899305      0.655680     -0.010354
Ti       9.50838     13.20184      2.25972        -0.334184      0.180274      0.655938
Ti       9.56086     13.25612     14.79767        -0.403084      0.828323      0.784066
Ti       9.45490      1.94314      6.62975        -0.906875     -0.913938     -1.446520
Ti       9.54714     13.25991      6.52620         0.070181      0.290496      1.105927
Ti       9.41378      1.87677     10.71809         0.904343      0.594484     -0.189948
Ti       9.60300     13.36648     10.62565        -1.033618     -1.207413     -1.223206
Ti       9.46556      5.57446      2.14512         0.376384      0.799334     -0.471004
Ti       9.39618      5.72441     14.97583         0.497849     -0.429643     -0.859783
Ti       9.37954      5.64964      6.53982         0.389684      0.382545      1.323263
Ti       9.46795      5.74783     10.71978        -0.501568     -0.246646     -0.055179
Ti       9.55967      9.47049      2.19225        -1.223406      0.078064     -0.279144
Ti       9.55593      9.54481     14.96149        -1.606491      0.210502     -0.786844
Ti       9.47080      9.43694      6.65449         0.055454      0.031770     -0.974993
Ti       9.46105      9.51575     10.74967         0.815375     -1.058386     -1.112296
O       1.90727      1.83295      0.35171        -0.206760      0.052322     -0.618112
O       1.81598      1.84195     13.21742         0.049152      0.465383      0.002367
O       1.95666     13.16132      0.47065        -0.230581      0.119955     -0.719384
O       1.88888     13.05631     13.22936        -0.403435      0.349698      0.929875
O      13.14890      1.74335      0.46806         0.311846      0.292690      0.202125
O      13.26898      1.92656     13.18266        -0.221424     -0.242958     -0.548830
O      13.47446     13.31879      0.51733        -0.292454     -0.153740      0.808396
O      13.25400     13.23286     13.18960        -0.070497      0.177231     -0.262732
O       1.88343      1.93031      4.70261         0.408844     -0.358539     -0.339862
O       1.93579     13.08279      4.64264         0.357137      1.095754      0.748477
O      13.19472      1.94601      4.65746         0.199728     -0.122430      0.595171
O      13.45101     13.19176      4.55863        -0.331315     -0.022500     -0.106787
O       1.80823      1.95926      8.97967         0.110221     -0.129850     -0.497105
O       2.03592     13.28301      9.09680        -0.608558     -0.189141     -1.659610
O      13.23804      1.87711      8.77223         0.238676      0.141783      0.525262
O      13.51102     13.27628      8.77793        -0.209640      0.200309      1.089580
O       1.73058      5.64664      0.38870         0.537702      0.005706      0.065890
O       1.73116      5.67910     13.13264         0.210915      0.203592      0.150740
O      13.35442      5.58427      0.54870        -0.630060      0.033154     -0.925619
O      13.17598      5.71936     13.26771         0.393079     -0.468088     -0.364631
O       1.97022      5.67921      4.58895        -0.044308     -0.334804      1.055889
O      13.25261      5.53322      4.66672        -0.096067      0.495404      0.502549
O       1.83999      5.76351      8.91881         0.350162     -0.343251      0.358637
O      13.24454      5.77055      8.85382         0.200458      0.068346      1.151934
O       1.92512      9.32085      0.39663        -0.036508      0.538619     -0.078766
O       1.77819      9.51096     13.12935         0.204743     -0.118716      0.723540
O      13.04785      9.36523      0.36612         0.845032     -0.033085      0.929391
O      13.14863      9.51160     13.18509         0.450096      0.055272     -0.239172
O       1.94845      9.23201      4.64225        -0.078786      0.773605      0.526429
O      13.38160      9.41913      4.65834        -0.250722     -0.080980     -0.114644
O       1.83040      9.55183      8.93452         0.429369     -0.273883      0.519542
O      13.27833      9.48698      8.87345         0.247488     -0.181134     -0.632015
O       5.74488      1.83478      0.35925        -0.084579      0.293172      0.630705
O       5.67628      1.88974     13.03882        -0.053392     -0.161118      1.000074
O       5.66917     13.22284      0.39483         0.207614      0.101036      0.586898
O       5.68792     13.32415     13.23764         0.202606     -0.210001     -0.691932
O       5.61005      1.80188      4.77413         0.067449      0.014998     -0.636781
O       5.64952     13.36840      4.76912         0.115334      0.114280      0.252811
O       5.71887      2.01240      9.00464        -0.360246     -0.250955      0.737307
O       5.60394     13.36600      8.94860         0.267176     -0.672075      0.700395
O       5.72344      5.53296      0.28760        -0.326291      0.304621      1.627306
O       5.61603      5.61087     13.09827         0.294168      0.561671     -0.081094
O       5.71416      5.54390      4.70797         0.037362      0.289782     -1.330183
O       5.64345      5.59940      8.90115        -0.113121      0.154261      0.762337
O       5.95161      9.49085      0.44801        -0.553636     -0.055514     -0.645167
O       5.67831      9.49368     13.13861         0.326941      0.050246      0.699409
O       5.61722      9.53848      4.75268         0.324510     -0.287532      0.398931
O       5.68334      9.42306      8.97350        -0.175426      0.638472      0.065162
O       9.53083      1.79373      0.40585        -0.240677     -0.057027      0.864894
O       9.43061      1.98754     13.04885         0.375881     -0.807233      0.360025
O       9.47736     13.20467      0.52891        -0.004582      0.312958     -0.613261
O       9.50547     13.21330     12.99761         0.408758      0.179882     -0.104176
O       9.58100      1.85514      4.72069        -0.450744      0.484238      0.885053
O       9.55099     13.24462      4.76788        -0.006356     -0.219119     -0.999846
O       9.57579      1.89070      8.90748        -0.577889     -0.107524      0.265946
O       9.55286     13.29832      8.77425        -0.080057      0.156471      1.492350
O       9.49678      5.55211      0.35215        -0.100368      0.250362      0.506438
O       9.36815      5.63109     13.12065         0.191527      0.024981      1.092301
O       9.46366      5.73986      4.76343        -0.005338     -0.435466     -0.810356
O       9.42987      5.69563      8.91269         0.186431      0.142513      0.717248
O       9.43384      9.55716      0.38901         0.461425     -0.365131      0.458938
O       9.56645      9.52891     13.18539        -0.168418      0.236195     -0.709782
O       9.34423      9.42920      4.79441         0.582938     -0.045460      0.715690
O       9.39715      9.30197      8.89339         0.174583      0.724896      0.694128
O       3.79145      1.81978      2.60997         0.719605      0.252369     -0.563552
O       3.77857      1.87365     15.37658         0.073444     -0.603869     -0.517507
O       3.82506     13.18603      2.62219        -0.015134      0.230826     -0.118385
O       3.75700     13.33605     15.27904         0.355065     -0.141726      0.424171
O       0.03405      1.72800      2.60748        -1.012283      0.153913     -0.208458
O      15.12071      2.03444     15.29547         0.182395     -0.260421      0.243776
O       0.10451     13.18481      2.64655        -0.966118      0.886205      0.032367
O      15.17576     13.16954     15.30241        -0.132247     -0.092747      0.272666
O       3.75981      1.85604      6.99279         0.163863     -0.218131     -0.108647
O       3.77765     13.23611      7.01093         0.359898      0.469916     -0.247096
O      15.18371      1.99141      6.78241         0.110080     -0.221358      0.043525
O       0.12028     13.20438      6.75658        -0.184449      0.271708      0.051977
O       3.75046      1.82919     11.18725        -0.248783      0.208325     -0.507825
O       3.74105     13.40218     11.20124         0.873991     -0.094519     -0.049201
O      15.11417      2.13400     11.07825         0.035571     -0.255252     -0.104032
O       0.02601     13.14950     11.19200        -0.785799      0.033851     -0.218773
O       3.78541      5.59281      2.48276         0.722963      0.103280     -0.001475
O       3.77682      5.70686     15.10679        -0.953476      0.005189      0.691647
O      15.15383      5.77930      2.52854         0.175277     -0.791671      0.670099
O      15.11245      5.57221     15.34510         0.406325      0.012891     -0.182230
O       3.80034      5.65233      6.92710        -0.469552      0.504125     -0.258388
O       0.06177      5.73918      6.81369        -0.834375     -0.468178     -0.102459
O       3.72587      5.72231     11.13938         0.123744      0.243949     -0.072822
O      15.16315      5.69047     11.01851        -0.021387     -0.099408      0.218149
O       3.80191      9.47580      2.40527         0.249424     -0.018196      0.438579
O       3.79308      9.42958     15.13012        -0.260997     -0.474428      0.742418
O      15.16629      9.36478      2.43635        -0.199088     -0.246316      0.269453
O      15.18436      9.40795     15.29295        -1.209631      0.224967     -0.039486
O       3.81272      9.41891      7.01535        -0.610462      0.342829     -0.546259
O       0.00588      9.44896      6.88327         0.785010      0.222942     -0.365910
O       3.83475      9.53322     11.14491        -1.524621     -0.418420     -0.140514
O      15.19270      9.50824     11.07219        -0.390090      0.176166      0.042006
O       7.60315      1.73843      2.63433        -0.701700      0.319512     -0.157197
O       7.58316      1.82616     15.19817        -0.290161     -0.066351      0.202722
O       7.59238     13.21142      2.65456         0.089843      0.075922      0.056357
O       7.61282     13.18171     15.14311         0.458499      0.303354      0.378717
O       7.52567      1.85745      6.87920         0.122210      0.149824      0.072998
O       7.67953     13.23765      6.81476        -0.956241     -0.231709      0.259363
O       7.56222      1.78730     11.07189         0.248694      0.815238     -0.242673
O       7.59886     13.26207     11.01496         0.333639     -0.187378      0.048266
O       7.63198      5.76990      2.43002        -0.242564     -0.325445      0.451868
O       7.50821      5.48824     15.27880         0.777585      0.374853     -0.212069
O       7.52354      5.65472      6.87144         0.350201     -0.053274     -0.145508
O       7.49015      5.63928     11.03938         0.768407     -0.296708      0.100064
O       7.65730      9.46963      2.65250         0.102162     -0.154940     -0.030012
O       7.66253      9.67860     15.26773        -0.913565     -0.444417     -0.052492
O       7.49794      9.57872      7.02063         1.173904     -0.167005     -0.469842
O       7.58460      9.58812     11.10680        -0.117624      0.186429      0.209667
O      11.31595      1.86255      2.55823         0.193101      0.014017      0.112242
O      11.31305      1.65911     15.19078         0.359748      0.399504      0.451002
O      11.39726     13.03548      2.56254         0.636628      0.698885      0.310281
O      11.37174     13.30028     15.39225         0.934731      0.385818     -0.476266
O      11.37292      1.88779      6.79038         0.289022      0.258482      0.087915
O      11.51875     13.29041      6.81546        -0.262073      0.074049     -0.447426
O      11.41508      1.82414     11.04827        -0.392449     -0.243084      0.170750
O      11.47268     13.32205     10.94448         0.077649      0.448101      0.109329
O      11.40038      5.56601      2.57786        -2.314364     -0.198906      0.273803
O      11.24531      5.73990     15.24274         0.082757     -0.404991      0.499122
O      11.36815      5.65712      6.92312         0.133774      0.010828     -0.612752
O      11.33644      5.84791     11.00060         0.134101     -0.153296      0.163883
O      11.40097      9.56788      2.63541         0.100641     -0.645444      0.180136
O      11.35961      9.51117     15.28332         0.768416     -0.502041      0.486180
O      11.41819      9.51905      6.76345        -0.017971     -0.555856      0.185972
O      11.36238      9.35070     10.97127         0.580218      0.250608      0.132895
O       1.83230      3.67699      2.51036        -0.031666      0.455478     -0.018559
O       1.97383      3.79472     15.36746        -0.323961      0.367194     -0.306090
O       1.94872     15.16600      2.42281         0.143214     -1.223600      0.702938
O       1.76187     15.14911     15.18782         0.287739      0.101575      0.789808
O      13.29438      3.64895      2.63998         0.310715      0.819240     -0.209521
O      13.04134      3.70788     15.38416         0.070020      0.222633      0.071230
O      13.24684     15.16420      2.64707         0.080574     -0.782052      0.312581
O      13.34540      0.01092     15.40589         0.117653     -1.127455     -0.386664
O       1.95519      3.78791      6.89049        -0.218087     -0.184234      0.005833
O       1.85627      0.01586      6.72526         0.206008     -1.602937      0.198275
O      13.31164      3.82538      6.90804        -0.248341     -0.043256     -0.151951
O      13.39132     15.14420      6.74068         0.080826      0.295557     -0.329917
O       1.93101      3.80828     11.14869        -0.188282      0.606984     -0.423381
O       1.70029      0.04288     11.12041         0.232888     -0.140393      0.273589
O      13.09355      3.86710     10.97443         0.263326      0.341574      0.192689
O      13.45225      0.03731     11.06055        -0.388570     -0.474927     -0.276404
O       1.89780      7.50886      2.51893         0.411358      0.541919      0.298834
O       1.89621      7.56393     15.35090        -0.312571     -0.686035     -0.547797
O      13.17927      7.47904      2.51569        -0.279621      1.544579      0.469213
O      13.12203      7.47739     15.33822         0.588057      1.436322      0.224806
O       1.88094      7.53251      6.66626         0.404124      0.084323      1.048806
O      13.33541      7.59367      6.82225        -0.224942     -0.771894     -0.198748
O       1.89408      7.61495     11.07164        -0.170400      0.280733      0.191019
O      13.30226      7.60210     11.11588         0.315809      1.076767      0.031234
O       1.82086     11.32388      2.60580         0.661038     -0.709885     -0.601310
O       2.00581     11.29439     15.41571        -0.589665     -0.097471      0.057482
O      13.43025     11.29648      2.43757        -0.101466     -0.196354      0.318132
O      13.26857     11.38687     15.40797         0.043294     -0.450340     -0.359141
O       1.99901     11.26837      6.71971        -0.232733      1.051780      0.416536
O      13.34350     11.38377      6.83333         0.230498     -0.426239     -0.271858
O       1.98050     11.40266     11.16861        -0.331259     -0.649467     -0.297032
O      13.24503     11.42752     10.88066        -0.120677     -0.555402      0.447148
O       5.75393      3.79437      2.59651         0.361883     -1.318229     -0.108643
O       5.62264      3.71902     15.23342         0.032145      0.099539      0.037596
O       5.66653     15.14196      2.38699         0.045842      0.866853      0.772640
O       5.75020     15.18878     15.32541        -0.154423     -0.144816     -0.106666
O       5.59951      3.75230      6.86006         0.186985     -0.114930      0.008211
O       5.65430     15.09930      7.03935        -0.052955      1.559938     -0.247930
O       5.55659      3.89638     11.12159         0.156340     -2.398803     -0.204448
O       5.72844      0.00174     11.11223        -0.272298     -0.234108     -0.045782
O       5.70608      7.58038      2.46769        -0.031796     -0.725102      0.424674
O       5.75946      7.54326     15.24730         0.246451      0.773139      0.250951
O       5.67568      7.55583      6.78049        -0.066286      0.595776      0.264496
O       5.71737      7.61703     10.99306        -0.284882     -0.080483      0.602432
O       5.66692     11.34496      2.69828         0.467903      0.118645     -0.424414
O       5.63960     11.33043     15.49222        -0.313978      0.639146     -0.692600
O       5.65199     11.44265      6.84835        -0.226488     -0.778879      0.518682
O       5.64121     11.41984     11.15869         0.081833      0.813713     -0.328599
O       9.35042      3.73396      2.59737         0.304546      0.256559      0.000165
O       9.43393      3.65514     15.36951         0.696133      0.568332     -0.456232
O       9.51902     15.08970      2.71718         0.160673      0.401240     -0.573550
O       9.47701     15.13139     15.31811        -0.530244     -0.338692     -0.326057
O       9.38395      3.78121      6.95653         0.490962      0.212284     -0.436467
O       9.39045      0.01599      6.81791         0.894822     -0.481065      0.172164
O       9.53505      3.75560     11.09256        -0.286404      0.608303     -0.374702
O       9.46494     15.15312     10.96656         0.252271      0.510470      0.482846
O       9.57832      7.57926      2.57173         0.104796     -0.599572     -0.153903
O       9.28279      7.64731     15.28191         0.687706     -0.948104     -0.119963
O       9.48226      7.54959      6.91585        -0.195390      0.119039     -0.283459
O       9.28234      7.59100     11.13228         0.406341      0.001856     -0.178876
O       9.52183     11.28269      2.67174        -0.579366      0.742180      0.209319
O       9.59495     11.48290     15.29332        -0.066336     -0.898909      0.009790
O       9.66220     11.33880      6.89860        -1.022340      0.384188     -0.077008
O       9.57356     11.37066     10.79488        -0.071748      0.756038      0.660480
