  # total energy = -7879.88567098 
CRSYTAL
PRIMVEC
    15.2000000000000000    0.0000000000000000    0.0000000000000000
     0.0000000000000000   15.2000000000000000    0.0000000000000000
     0.0000000000000000    0.0000000000000000    17.000000000000000
PRESSURE
7.54738 7.11834 5.4469 -0.234776 0.211223 -0.016281
PRIMCOORD
320 1
Pb       3.63796      3.86690      4.28730         0.095098     -0.284854     -0.033790
Pb       3.96790      3.91130      0.06165        -0.476111     -0.292468     -0.238637
Pb       3.59782      0.21753      4.37817        -0.004550     -0.404265      0.028539
Pb       3.92094     15.17997     16.99727         0.025544     -0.011720     -0.186447
Pb      15.15416      3.91314      4.17221         0.398158     -0.271339     -0.384413
Pb       0.13426      3.73984     16.93488        -0.384331      0.586759      0.470314
Pb      15.15322      0.29584      4.46052         0.645751     -0.466677     -0.744129
Pb       0.07166     15.10396     16.88336        -0.200369      0.206981      0.218754
Pb       3.95776      3.82083      8.44107        -0.647820     -0.512881     -0.880493
Pb       3.82051     14.95798      8.72912        -0.071693      0.625158     -0.813455
Pb       0.06784      3.71111      8.66867        -0.067521      0.101599     -0.927912
Pb      14.95000     15.06886      8.63743         0.804441      0.386801     -0.623931
Pb       3.83301      3.79639     12.61222        -0.440075     -0.424610      0.685322
Pb       3.83615     15.17370     12.76695        -0.139418     -0.246037     -0.212043
Pb      15.19172      3.72637     12.70550         0.017672     -0.048178      0.066908
Pb       0.09263     15.16794     12.85102        -0.394464      0.303327     -0.541886
Pb       3.64604      7.75546      4.34117         0.093874     -0.512732     -0.157292
Pb       3.90592      7.64695      0.02415        -0.544274     -0.191850     -0.358550
Pb      15.07440      7.88183      4.26517         0.510166     -0.940126     -0.027052
Pb       0.04608      7.59966     16.82065        -0.037773     -0.224646      0.930843
Pb       3.79129      7.59681      8.35848        -0.446812     -0.262191     -0.023183
Pb      15.05179      7.47947      8.52419         0.164391     -0.078873     -0.128629
Pb       3.79576      7.43735     12.55920        -0.204658      0.583603      0.348333
Pb      15.13400      7.34645     12.67237         0.341716      0.522641      0.436072
Pb       3.49539     11.51397      4.34707         0.472112     -0.218677      0.041313
Pb       4.06034     11.42400      0.32672        -0.531708     -0.024356     -0.790385
Pb      15.05057     11.55869      4.21809         0.422240     -0.262758     -0.425551
Pb       0.14135     11.41810     16.92673        -0.018823     -0.348842     -0.140735
Pb       3.71709     11.39526      8.54224        -0.040144      0.100614     -0.240645
Pb      14.99918     11.40973      8.55951         0.025478     -0.153699     -0.114724
Pb       3.71819     11.28992     12.72039         0.285445      0.057729     -0.344002
Pb      15.18415     11.07353     12.87798        -0.325563      0.314782     -0.452257
Pb       7.56345      3.77503      4.17383        -0.218154      0.192687     -0.397834
Pb       7.54913      3.77732      0.05313         0.234341     -0.241434     -0.300869
Pb       7.58742     15.16023      4.22804         0.118053      0.271321     -0.447666
Pb       7.64267     15.11742      0.01285         0.015436      0.254577     -0.333842
Pb       7.69934      3.79293      8.31142        -0.134112     -0.351833      0.027870
Pb       7.61124     15.09396      8.36944        -0.110865      0.708259      0.089386
Pb       7.54774      3.85173     12.75675         0.458993     -0.722611     -0.054413
Pb       7.56511     15.16983     12.78970         0.338631     -0.074310      0.024610
Pb       7.73896      7.65365      4.23341        -0.290539     -0.673824      0.077707
Pb       7.49229      7.73319      0.06912         0.059652     -0.557603     -0.185675
Pb       7.53064      7.63305      8.32856         0.620815     -0.268775     -0.027178
Pb       7.44195      7.50457     12.63393         0.623236      0.410143      0.496745
Pb       7.49826     11.37395      4.25209         0.269995      0.156570     -0.441494
Pb       7.63260     11.43812      0.02356        -0.066383      0.089128     -0.050181
Pb       7.51423     11.56231      8.50656         0.160159     -0.441289     -0.328785
Pb       7.44790     11.26834     12.68321         0.378516     -0.168744      0.311217
Pb      11.43291      3.75829      4.09470         0.092913      0.252079     -0.002846
Pb      11.40504      3.64174     16.99880        -0.335860      0.242411     -0.119898
Pb      11.49988      0.00106      4.14369        -0.310765     -0.262033     -0.454759
Pb      11.50854     15.10788     16.91154        -0.698136      0.501903      0.354851
Pb      11.41481      3.80595      8.44782        -0.101233      0.103735     -0.028889
Pb      11.25575      0.00288      8.39070         0.507152      0.079112      0.429946
Pb      11.35289      3.74618     12.81200         0.319122     -0.057124     -0.212734
Pb      11.41044     15.10059     12.74872         0.205238      0.442815      0.060379
Pb      11.45509      7.77835      4.08129        -0.311416     -0.956930      0.542178
Pb      11.33860      7.52982     16.90764         0.502952     -0.110481     -0.051615
Pb      11.26055      7.48991      8.56835         0.297771      0.094889     -0.926976
Pb      11.31386      7.46180     12.84748         0.168468      0.062813      0.051256
Pb      11.40584     11.32762      4.12312        -0.174511      0.361188      0.050881
Pb      11.41780     11.49688     16.86855        -0.004646     -0.457686     -0.072200
Pb      11.25948     11.49900      8.50558         0.522794     -0.643339      0.043363
Pb      11.34955     11.32225     12.67077         0.159403     -0.190798      0.590724
Ti       1.92371      1.93919      2.12439        -0.783325      0.182932      1.724167
Ti       2.02447      1.88472     15.04121        -0.141805      0.107436     -0.091585
Ti       1.88415     13.38358      2.17466        -0.867001      0.016836      1.237913
Ti       1.92561     13.23852     14.93997         0.904687     -0.528623     -0.286427
Ti      13.32116      1.86896      2.17771         0.780258      0.377993      0.768440
Ti      13.36232      1.82441     15.01166        -0.488917      0.268072      0.222122
Ti      13.29986     13.23302      2.06407         0.285841      1.211493      2.090094
Ti      13.31564     13.26599     14.79512        -0.081486     -0.743118      1.406755
Ti       1.87978      1.82648      6.70670         0.228847      0.281122     -0.705074
Ti       1.82215     13.24839      6.58214         0.126608      1.285447      0.182760
Ti      13.25320      1.91287      6.52526         0.479115     -0.271819      1.007681
Ti      13.20393     13.26515      6.37601         0.907206      0.018214      1.015851
Ti       1.94657      1.84869     10.77880        -0.330582     -0.297250     -0.103248
Ti       1.87509     13.24024     10.81413         0.441588      0.396098     -0.514453
Ti      13.26445      1.89060     10.74603         0.118759     -0.817226      0.188661
Ti      13.36244     13.23527     10.81701        -0.721713      0.561231      0.540041
Ti       1.88084      5.80319      2.15731        -0.618018     -1.228228      1.048619
Ti       1.94506      5.60999     14.89050        -0.059182      1.174071      0.752869
Ti      13.25672      5.71170      2.09002         1.264055     -0.761213      0.083242
Ti      13.33865      5.59418     15.02388        -0.933250      0.772481      0.317302
Ti       1.84801      5.66161      6.42721         0.181723     -0.348759      1.636480
Ti      13.28279      5.67472      6.33349        -0.316266     -0.303204      2.219164
Ti       1.93699      5.61353     10.62135        -0.723036      0.428452      0.476950
Ti      13.24209      5.65333     10.75137         0.431610     -1.176708     -0.067693
Ti       1.88928      9.51975      2.23398        -0.173752      0.216105     -0.526877
Ti       1.94743      9.42949     14.93688        -0.151842      0.346751      1.451326
Ti      13.32742      9.49080      2.00017        -0.051186      0.397311      0.278010
Ti      13.28283      9.46349     14.95071        -0.017485     -0.499367     -0.507050
Ti       1.71039      9.46301      6.63474         0.942501     -0.318298      0.270140
Ti      13.20530      9.45566      6.55758        -0.484402      0.189037      1.948284
Ti       1.86909      9.43846     10.69119        -0.146994     -0.716941      0.091710
Ti      13.21454      9.40102     10.83925         0.477897      0.297169     -0.057512
Ti       5.61348      1.91560      2.27555         0.339257     -0.312888      0.417263
Ti       5.76128      1.86289     14.89924        -0.711833      0.551358      2.330667
Ti       5.57731     13.35554      2.40090         0.513926     -0.196174     -0.499413
Ti       5.68709     13.23254     14.97064         0.044177      0.617965     -0.575153
Ti       5.72002      1.75560      6.41669        -1.123652      0.731462      1.121831
Ti       5.66192     13.21396      6.36228        -0.830836      1.116645      0.400028
Ti       5.74193      1.90053     10.69894         0.154412     -1.922695     -0.114325
Ti       5.76215     13.27136     10.81722        -1.057259     -0.404407     -0.150503
Ti       5.63280      5.73685      2.35326         0.481639     -0.063180      0.572444
Ti       5.70816      5.72820     14.94046        -0.606062     -0.740053      2.296142
Ti       5.72241      5.69531      6.38483        -0.190814     -0.558041      0.144616
Ti       5.71351      5.59827     10.50731         0.345741      0.369140      1.553400
Ti       5.67878      9.46927      2.41361         0.352001      0.827930     -0.411176
Ti       5.66885      9.52497     14.98403        -0.034824     -0.547565      0.356463
Ti       5.60132      9.50102      6.36836         0.214981      0.249600      1.254668
Ti       5.66775      9.43614     10.55367        -0.315948      0.179446      2.855717
Ti       9.48135      1.85505      2.21302        -0.126198     -0.338520     -1.033677
Ti       9.48568      1.84584     14.97824        -0.464837     -0.112546      1.377601
Ti       9.44733     13.22061      2.23573         0.447398      0.913375      1.367475
Ti       9.50631     13.24901     14.86370        -0.063972      0.012207      1.586846
Ti       9.50230      1.93896      6.28820        -0.041349     -0.699070      1.910936
Ti       9.51213     13.26764      6.32431        -0.602738     -0.018566      0.074559
Ti       9.47958      1.80245     10.79423        -0.301345      0.483129     -0.173754
Ti       9.52075     13.23182     10.75047        -0.021510      0.064730      0.876252
Ti       9.51278      5.66862      2.16166        -0.605917     -0.337090      0.569555
Ti       9.37680      5.68613     15.06241         0.963395     -0.561760      1.718090
Ti       9.54419      5.67421      6.24960         0.610862      0.502865      0.251656
Ti       9.47730      5.57184     10.78823         0.316878      0.574188      0.750827
Ti       9.50189      9.45966      2.15539        -0.191259      0.585333      2.026314
Ti       9.45457      9.43990     14.97595         0.392956      0.780854      0.148297
Ti       9.43336      9.48623      6.47780         1.348791     -0.143502     -0.318203
Ti       9.45666      9.36906     10.76143         0.013133      0.359065      0.639469
O       1.92935      2.02985      0.37609         0.119126     -0.679948     -0.733276
O       1.98417      1.92533     13.25473        -0.233102     -0.047607     -0.163024
O       1.96011     13.27048      0.42556        -0.074886      0.111711     -0.556160
O       2.03437     13.19186     13.10067        -0.330325      0.113776      0.708584
O      13.30261      1.94613      0.43498         0.132491     -0.399458     -1.056783
O      13.31693      1.84101     13.27473         0.052256      0.124785     -0.612860
O      13.29948     13.28955      0.33452         0.053653     -0.258318     -0.793768
O      13.31410     13.29033     13.06446         0.173557     -0.038354     -0.197481
O       1.77813      1.86639      4.86835         0.057637     -0.107065      0.391100
O       1.91759     13.40289      4.80446        -0.715556     -0.714934      0.234366
O      13.29477      1.90198      4.74826         0.006030     -0.118706     -0.348470
O      13.30116     13.35070      4.60341        -0.129798     -0.340965      0.355599
O       1.91873      1.78780      9.02602         0.144201      0.326632     -0.708459
O       2.05862     13.34501      8.99602        -0.763896     -0.688191     -0.036297
O      13.21237      1.79319      8.94141        -0.036052      0.290258      0.632568
O      13.25348     13.20531      9.01798        -0.006949      0.034902      0.133045
O       1.86030      5.72540      0.40886         0.485220      0.157738     -0.134211
O       1.87772      5.56723     13.12295         0.289946      0.017508     -0.260431
O      13.28893      5.66605      0.32737        -0.245609     -0.158833     -0.118686
O      13.31074      5.69978     13.22689         0.045043     -0.440242      0.278632
O       1.79709      5.68341      4.67313         0.352294      0.209488     -0.324312
O      13.20104      5.58748      4.60460         0.194812      0.517106     -0.531354
O       1.88342      5.61410      8.88348         0.105122      0.039739     -0.272334
O      13.26036      5.61047      8.97746        -0.151708      0.126131      0.003312
O       1.85090      9.41907      0.46093         0.140904      0.457215      0.541419
O       1.89136      9.48249     13.18795         0.226151      0.111260     -0.961037
O      13.36575      9.61555      0.26068        -0.120474     -0.054980      0.537867
O      13.33093      9.32819     13.06790        -0.109276      0.491509      1.480423
O       1.81313      9.53641      4.85865        -0.252910     -0.515833     -1.053049
O      13.29922      9.55597      4.84856        -0.139890     -0.378508     -2.442665
O       1.88902      9.44537      8.91500         0.013152     -0.149954      0.171659
O      13.36503      9.36473      9.05259        -0.447737      0.155788      0.176203
O       5.49739      1.83536      0.51179         0.353855      0.296926     -0.125121
O       5.80150      1.92409     13.17824        -0.028024     -0.185590     -1.495054
O       5.65153     13.33231      0.51504        -0.254117     -0.174243      0.483194
O       5.70845     13.21442     13.12118        -0.104823     -0.328588      1.232640
O       5.71923      1.86720      4.67082         0.205758     -0.040629     -0.574083
O       5.64347     13.19524      4.58861         0.066182      0.341593      0.223140
O       5.70324      1.84115      8.94929         0.064580      0.038025     -0.598053
O       5.69199     13.30905      9.01070         0.555477     -0.380143     -0.277084
O       5.55824      5.79191      0.57440         0.400528      0.044131     -0.845800
O       5.86775      5.60280     13.24952        -0.491013      0.176332     -2.245680
O       5.70831      5.67133      4.64249        -0.275051     -0.083812     -0.307350
O       5.75180      5.69217      8.78168        -0.008528     -0.156788     -0.625889
O       5.64082      9.51530      0.56995         0.184241     -0.286577      0.057156
O       5.79898      9.45195     13.23788        -0.474353      0.139137     -0.420610
O       5.59263      9.64820      4.62824         0.284454     -0.330261     -0.400369
O       5.74465      9.40338      8.85195        -0.131906      0.169114     -1.395590
O       9.51340      1.86915      0.38924        -0.146410     -0.324784      0.798105
O       9.37108      1.77537     13.23034         0.127826      0.412333     -0.529123
O       9.48343     13.27265      0.49502        -0.041150      0.052639     -1.032081
O       9.52112     13.22042     13.15308        -0.193263     -0.022611     -1.463483
O       9.45460      1.89507      4.57528         0.136914      0.028596     -0.974828
O       9.54036     13.24738      4.55478        -0.054215     -0.076705      0.506910
O       9.48439      1.84793      9.02937         0.166701      0.023117     -0.379838
O       9.50839     13.28379      8.96234        -0.252361     -0.151781     -0.000868
O       9.45955      5.69557      0.38494        -0.073496      0.003667      0.517323
O       9.40149      5.70017     13.34073        -0.173802     -0.166936     -2.097331
O       9.59295      5.65119      4.50358        -0.062428     -0.126463     -0.368037
O       9.44795      5.61860      9.07794         0.437006      0.151825     -1.727893
O       9.40785      9.55671      0.46158         0.019303     -0.201212     -1.529345
O       9.52889      9.45181     13.20374        -0.474042     -0.127913      0.244417
O       9.58198      9.48988      4.69222         0.042400      0.185926      0.193277
O       9.46543      9.27402      9.01410        -0.050782      0.245455     -0.911296
O       3.70342      1.99613      2.72732         0.251976     -0.352020     -0.079197
O       3.85361      1.74264     15.30152        -0.251977      0.019619     -0.013043
O       3.67726     13.23801      2.71374         0.796991     -0.209804     -0.447898
O       3.82353     13.36182     15.32780         0.266000     -0.033084     -0.192349
O       0.06989      1.99494      2.73603        -0.945863     -0.538231     -0.800784
O       0.03479      1.90567     15.36840         0.267390      0.253239     -0.083707
O       0.00713     13.28194      2.40882        -0.613198     -0.403195      0.334959
O       0.01844     13.17845     15.25807        -0.063600      0.061182     -0.031931
O       3.82933      1.77323      6.61719        -0.299816      0.450358      0.915491
O       3.80765     13.30418      6.79726        -0.414604     -0.484344      0.463715
O      15.16120      1.83998      7.01764        -0.835260      0.241469     -0.236704
O      15.13627     13.21817      6.97215        -0.001411     -0.245639     -0.428903
O       3.83728      1.67626     11.15277        -0.129095      0.103676     -0.067486
O       3.78800     13.41209     10.95714         0.566437     -0.012747      0.879063
O      15.17300      1.96108     11.12636         0.256640      0.378502     -0.106932
O       0.03411     13.14328     11.07766        -0.173436     -0.149468      0.015708
O       3.78172      5.80484      2.59551        -1.009458      0.056012      0.443779
O       3.78620      5.76100     15.25998         0.555021      0.606928      0.142956
O       0.00273      5.61459      2.46604        -0.675056      0.539866      0.203756
O       0.01155      5.57141     15.34155         0.106919     -0.031323     -0.405891
O       3.78734      5.64009      6.75748         0.358908      0.251592      0.066799
O       0.00539      5.59226      6.82265        -1.367528      0.215188     -0.120892
O       3.85275      5.66774     10.97387         0.136941      0.101400      0.077928
O       0.02385      5.45803     11.04599        -0.276335      0.428997     -0.067557
O       3.82959      9.65011      2.63500        -1.576006     -0.884552      0.012076
O       3.78790      9.39367     15.37867         0.260923      0.077454     -0.277884
O      15.11864      9.49887      2.68020         0.338583      0.262296     -0.542505
O      15.16618      9.52490     15.33416         0.721176      0.870775     -0.489216
O       3.77992      9.42621      6.79454         0.079061      0.080435      0.163336
O      15.08122      9.37097      6.90055         0.694635      0.156886      0.303982
O       3.79950      9.33351     11.12803         0.021606     -0.061516     -0.419472
O      15.17950      9.43945     11.16603         0.455777      0.048678     -0.347153
O       7.54082      1.85474      2.58900        -0.263434     -0.094287     -0.175033
O       7.51686      1.93099     15.52290         1.112323     -0.136454     -0.396996
O       7.54277     13.37888      2.63421         0.027233     -0.122425     -0.087528
O       7.63425     13.18264     15.34952        -0.772125     -0.223753     -0.119315
O       7.62034      1.82795      6.77504         0.933446      0.205580      0.072846
O       7.55272     13.27360      6.66210         0.977122     -0.166730      0.543499
O       7.57515      1.99497     11.03809         0.396060     -0.127009      0.429354
O       7.61504     12.99180     11.14803         0.617713      0.530028     -0.668363
O       7.54047      5.74387      2.62560         1.132706     -0.280814     -0.258455
O       7.52811      5.63610     15.42115        -0.378742      0.114694      0.329745
O       7.70121      5.68002      6.60822        -1.301862     -0.267196      0.660653
O       7.56065      5.45905     10.95997        -0.661053      0.360351      0.476464
O       7.61993      9.46154      2.69762         0.308991      0.236530     -0.325690
O       7.55646      9.68864     15.41243         0.653580     -0.582466     -0.152198
O       7.58024      9.35092      6.72082        -0.304117      0.782989      0.054569
O       7.53427      9.46256     11.00922         0.325916      0.215932      0.228319
O      11.42015      1.88473      2.53585        -0.322789     -0.131067      0.121528
O      11.36846      1.79593     15.36035         0.303421     -0.051711     -0.233413
O      11.39210     13.24569      2.50517         0.226482      0.345504      0.022263
O      11.43753     13.48382     15.30084        -0.092049     -0.927018     -0.452266
O      11.34234      1.75855      6.80356         0.253881      0.297731     -0.062366
O      11.34772     13.25862      6.80242         0.750152     -0.241942     -0.082839
O      11.38393      1.70692     11.20421         0.039167      0.362365     -0.168426
O      11.40776     13.34158     11.20737        -0.261253      0.131095     -0.651991
O      11.40561      5.56487      2.49387        -0.704291      0.497611     -0.236359
O      11.31233      5.83859     15.28089         0.858341     -0.399483      0.067027
O      11.34755      5.64415      6.82062         1.103765      0.369306      0.246119
O      11.40327      5.63827     11.18535        -0.973399      0.188663      0.049607
O      11.43429      9.48697      2.49665        -0.061228      0.338588     -0.070994
O      11.40979      9.37791     15.39863        -0.677070     -0.130294     -0.403653
O      11.38849      9.55636      6.92692        -0.965000     -0.701443      0.220207
O      11.34312      9.34905     11.14506         0.766980     -0.272820     -0.188152
O       1.90685      3.80941      2.62100         0.151528      0.759889     -0.256459
O       2.06704      3.84087     15.40793        -0.414228     -1.306157     -0.285828
O       1.86489      0.02928      2.72296         0.073366      0.181969     -1.006119
O       1.85991     15.14016     15.36932        -0.092462      0.262079     -0.352596
O      13.25614      3.77291      2.50225         0.204406      0.233769      0.251669
O      13.17151      3.73571     15.30391         0.180173      0.312635      0.016768
O      13.32550      0.00881      2.51324        -0.123928     -0.630937      0.035985
O      13.46970     15.10490     15.29594        -0.336682      0.753023      0.170732
O       1.87310      3.75407      6.94640         0.360893      0.081639      0.055510
O       1.77954     15.14997      6.97624         0.291146     -0.710843     -0.111353
O      13.14751      3.75315      6.88059         0.534823      0.337505     -0.348178
O      13.31405     15.11742      6.88617        -0.345017      0.041176     -0.360891
O       2.05028      3.74753     10.99539        -0.011289     -0.202047      0.369301
O       1.71992      0.00402     11.16137         0.533755     -0.976810      0.205967
O      13.17491      3.75834     11.15028        -0.012978     -0.773422      0.153279
O      13.48358     15.17202     11.25167        -0.436713     -0.027239     -0.661486
O       1.83720      7.66133      2.71509         0.248183      0.101153     -0.087764
O       1.76211      7.60562     15.31891         0.563679     -0.879954     -0.564217
O      13.21949      7.60238      2.38803         0.297647      0.316006      0.454869
O      13.45491      7.61656     15.40161        -0.959567     -0.956006     -0.666637
O       1.88573      7.54705      6.97426        -0.124525     -0.161586     -0.626464
O      13.25914      7.50319      6.91644        -0.133537     -0.027915     -0.503596
O       1.86637      7.48540     11.07949         0.085418      0.288760     -0.114940
O      13.29252      7.43112     11.19935         0.195418      1.587005     -0.590549
O       1.84378     11.36156      2.65630        -0.366832      0.690335     -0.135304
O       1.95310     11.37606     15.35556         0.031042     -0.017795     -0.251031
O      13.28078     11.38064      2.59206         0.125835     -0.166804     -0.370297
O      13.14419     11.36167     15.17845         0.343419      0.777066     -0.156496
O       1.90819     11.27688      6.94726        -0.179098      1.829930      0.129713
O      13.28831     11.36236      6.83523         0.093465      0.750331      0.275664
O       2.04542     11.29759     10.95942        -0.103179      0.455121      0.472048
O      13.25421     11.37458     11.19753        -0.066734     -1.086821     -0.452909
O       5.60459      3.79311      2.58488         0.263225      0.647996      0.187093
O       5.54600      3.76845     15.34917         0.557627      0.558132     -0.002907
O       5.42539      0.04243      2.61022         0.696329     -0.710346      0.218303
O       5.81313     15.19898     15.32034        -0.204731     -1.389759     -0.103193
O       5.71200      3.78010      6.83992         0.309811     -0.201200     -0.161678
O       5.71121     15.12681      6.94615         0.245241     -0.379673     -0.740847
O       5.51506      3.67565     11.00837         0.417716      2.323301     -0.207242
O       5.88368     15.08577     11.17500        -0.237316      1.039612     -0.249311
O       5.74910      7.64855      2.79091        -0.653793     -0.141439     -0.297311
O       5.78377      7.61824     15.37548        -0.036485      0.109832      0.088997
O       5.65900      7.60036      6.79438         0.170376     -0.405694     -0.351262
O       5.73270      7.49866     11.11186        -0.009047     -0.344576     -0.935888
O       5.74345     11.44581      2.63293        -0.049580     -0.328085     -0.409098
O       5.58234     11.36849     15.47014         0.103190      0.795230     -0.283898
O       5.72334     11.38568      6.88072         0.004957     -0.439312     -0.051152
O       5.58916     11.31029     11.02681        -0.066919     -0.333626      0.036376
O       9.40925      3.71857      2.45089         0.090872      1.337111      0.339909
O       9.37344      3.75629     15.40590         0.666714     -0.016641     -0.344331
O       9.43591      0.01788      2.66186         0.426655     -0.855178     -0.237274
O       9.42238     15.11002     15.30202        -0.312769      0.784852      0.199472
O       9.65419      3.79706      6.71567        -0.977520     -0.977791      0.138753
O       9.58483     15.11093      6.77559        -1.025574      0.586159     -0.408808
O       9.54180      3.74371     11.23228         0.246080     -0.492276      0.095013
O       9.32158     15.14070     11.15049         0.170728     -0.636300     -0.162592
O       9.53489      7.57444      2.66614         0.131042      0.082605     -0.789828
O       9.38843      7.60919     15.52156        -0.530653      0.456505     -0.597789
O       9.52440      7.54775      6.68462         0.241925      0.598633      0.632036
O       9.43964      7.50939     11.23859        -0.162725     -0.339610     -0.378544
O       9.49572     11.34872      2.56834        -0.244044      0.036597      0.034627
O       9.67128     11.38870     15.32706        -0.353819     -0.246472     -0.069604
O       9.53405     11.39339      6.92363        -0.877085     -0.095493     -0.302544
O       9.72675     11.32462     11.04891        -1.036281     -0.122086     -0.478060
