  # total energy = -7882.65078559 
CRSYTAL
PRIMVEC
    15.6000000000000000    0.0000000000000000    0.0000000000000000
     0.0000000000000000   15.6000000000000000    0.0000000000000000
     0.0000000000000000    0.0000000000000000    17.640000000000000
PRESSURE
-7.73299 -7.76597 -12.8917 0.007941 0.038432 0.03668
PRIMCOORD
320 1
Pb       3.87035      3.86699      4.38480         0.051250      0.050210     -0.501118
Pb       3.87913      3.88238     17.61311         0.204979      0.123277     -0.568412
Pb       3.87921     15.57861      4.37657         0.167670      0.033813     -0.469479
Pb       3.87610     15.57741     17.60813         0.041537     -0.010443     -0.576075
Pb      15.58681      3.87730      4.38745        -0.137955      0.156804     -0.580664
Pb      15.58353      3.88506     17.61735        -0.214384      0.063328     -0.495833
Pb      15.57716     15.57734      4.37785        -0.195419     -0.045717     -0.594905
Pb      15.57084     15.58631     17.60867         0.032222      0.088878     -0.534194
Pb       3.87613      3.88660      8.79446         0.056961     -0.122350     -0.248329
Pb       3.87545     15.58671      8.78756         0.026642     -0.005700     -0.334038
Pb      15.57963      3.88334      8.78351        -0.007837     -0.163604     -0.144540
Pb      15.58493     15.58402      8.78956         0.018640     -0.082458     -0.167450
Pb       3.88090      3.86033     13.20620         0.065002      0.002021     -0.452975
Pb       3.87455     15.57642     13.20148        -0.179796      0.094422     -0.581665
Pb      15.57983      3.86820     13.19967        -0.047759      0.204584     -0.411099
Pb      15.58021     15.59348     13.19650         0.071333     -0.005852     -0.322461
Pb       3.88069      7.78548      4.38714        -0.040934      0.202181     -0.531054
Pb       3.88939      7.78502     17.61219        -0.048637     -0.102289     -0.476752
Pb      15.58179      7.79969      4.38490         0.117708     -0.043503     -0.364516
Pb      15.58573      7.78749     17.60895        -0.084351     -0.031884     -0.506932
Pb       3.88490      7.79181      8.79851        -0.334120     -0.055318     -0.302932
Pb      15.58027      7.78201      8.79704         0.030543      0.206804     -0.270548
Pb       3.88401      7.78291     13.19491        -0.357692     -0.138806     -0.290671
Pb      15.58607      7.79198     13.20172        -0.034967     -0.255169     -0.458259
Pb       3.87950     11.67731      4.38363         0.293583     -0.203897     -0.596699
Pb       3.88422     11.67519     17.61133         0.218656      0.005464     -0.512854
Pb      15.57330     11.66424      4.37048        -0.173895     -0.038653     -0.291616
Pb      15.57973     11.67464     17.60421        -0.252874      0.082010     -0.404253
Pb       3.87551     11.67011      8.78835         0.077911      0.144854     -0.397876
Pb      15.57703     11.68518      8.79942        -0.048421      0.097544     -0.520971
Pb       3.87937     11.68565     13.20066        -0.134583     -0.101562     -0.517948
Pb      15.57381     11.67350     13.20121        -0.001877      0.037548     -0.450105
Pb       7.78742      3.86389      4.38989         0.087114     -0.037616     -0.360351
Pb       7.78255      3.87617     17.61042        -0.026534     -0.046211     -0.602369
Pb       7.77524     15.57266      4.37725        -0.030817     -0.003512     -0.518251
Pb       7.77968     15.57853     17.61767         0.020552      0.075019     -0.428304
Pb       7.77680      3.88193      8.78939        -0.130031      0.008450     -0.359984
Pb       7.78509     15.58180      8.78325        -0.203663     -0.106392     -0.328821
Pb       7.80157      3.88470     13.19386        -0.059544      0.131561     -0.491790
Pb       7.78098     15.58673     13.20846         0.084179      0.007813     -0.559556
Pb       7.79344      7.78075      4.38055         0.018537      0.067644     -0.281727
Pb       7.78206      7.79321     17.61583         0.054579     -0.128617     -0.388588
Pb       7.77701      7.78550      8.78984         0.188824     -0.138715     -0.356502
Pb       7.78076      7.79493     13.18935        -0.109315     -0.301035     -0.441203
Pb       7.78763     11.68267      4.38453        -0.105223      0.014178     -0.376275
Pb       7.78190     11.68259     17.62020        -0.036892      0.063209     -0.423447
Pb       7.78680     11.68151      8.80698        -0.064117      0.106170     -0.465350
Pb       7.78189     11.68481     13.20279        -0.046185      0.173873     -0.513708
Pb      11.67766      3.88107      4.38894        -0.087275     -0.082203     -0.502548
Pb      11.69790      3.87635     17.61276         0.005633      0.041545     -0.488386
Pb      11.66680     15.56740      4.38780        -0.002768      0.204434     -0.619670
Pb      11.66677     15.57317     17.61462         0.006983      0.035245     -0.367933
Pb      11.66874      3.88240      8.79213         0.040419     -0.075381     -0.389430
Pb      11.69062     15.58785      8.78565         0.059082      0.111923     -0.345065
Pb      11.68935      3.88156     13.20364         0.049851      0.136627     -0.336336
Pb      11.68136     15.58124     13.19931         0.023167     -0.141206     -0.427434
Pb      11.68868      7.77762      4.37086        -0.154643     -0.236296     -0.284829
Pb      11.68774      7.77650     17.60630        -0.110088     -0.058300     -0.482395
Pb      11.67251      7.78187      8.78306         0.091404     -0.046346     -0.204037
Pb      11.68504      7.77736     13.20535         0.367611     -0.202275     -0.473796
Pb      11.68322     11.67781      4.36799        -0.111492      0.118851     -0.235348
Pb      11.69326     11.66971     17.59779         0.002999     -0.023219     -0.371879
Pb      11.68521     11.67182      8.77508        -0.051539      0.034421     -0.261262
Pb      11.67501     11.67313     13.18552         0.033718      0.077736     -0.310836
Ti       1.93175      1.93397      2.35411        -0.119458     -0.179434     -1.548645
Ti       1.92291      1.94649     15.58974        -0.452138     -0.258496     -1.420233
Ti       1.92547     13.63632      2.35066         0.008661     -0.065635     -1.467949
Ti       1.92889     13.63012     15.58236        -0.161225      0.127806     -1.289802
Ti      13.65307      1.92227      2.33891        -0.879564      0.118945     -1.060799
Ti      13.60887      1.91543     15.59323         0.238243      0.177303     -1.051344
Ti      13.62986     13.60895      2.35934        -0.199773      0.236866     -1.623900
Ti      13.61908     13.61441     15.59831         0.108678      0.316631     -1.677211
Ti       1.90114      1.91755      6.74865         0.339708      0.102585     -0.556663
Ti       1.94985     13.62785      6.76542        -0.357753     -0.094531     -0.786362
Ti      13.64348      1.91703      6.74181        -0.511737      0.193528     -0.897504
Ti      13.61992     13.63624      6.74952         0.186650     -0.175043     -1.154415
Ti       1.93597      1.92467     11.16448        -0.207865     -0.084954     -1.266803
Ti       1.92280     13.63388     11.16381        -0.134204      0.174755     -1.429479
Ti      13.62032      1.90175     11.17122         0.072145      0.511750     -1.204952
Ti      13.62275     13.62908     11.16498         0.129906     -0.018742     -0.949223
Ti       1.91605      5.84368      2.32494        -0.140685      0.108762     -1.149932
Ti       1.92074      5.81618     15.59824        -0.148544      0.379969     -1.761312
Ti      13.61143      5.83616      2.33374        -0.018529     -0.624179     -1.196296
Ti      13.61325      5.83592     15.58593         0.073035     -0.264317     -1.613112
Ti       1.93053      5.84052      6.75429        -0.444237      0.170387     -1.053765
Ti      13.62980      5.82749      6.77629        -0.182590     -0.063725     -1.261300
Ti       1.95320      5.80049     11.15943        -0.666565      0.343372     -0.797385
Ti      13.62361      5.82233     11.16899         0.446564      0.183323     -0.628216
Ti       1.92090      9.74885      2.34461         0.122683     -0.428102     -0.962050
Ti       1.91683      9.73607     15.58532        -0.027130     -0.344322     -1.507211
Ti      13.60222      9.70854      2.38254         0.510249      0.170488     -1.735116
Ti      13.61713      9.72929     15.58097         0.156371     -0.139514     -1.375465
Ti       1.94765      9.74163      6.75159        -0.571356     -0.539076     -0.700680
Ti      13.60752      9.71736      6.76474         0.565216      0.101143     -1.099899
Ti       1.92456      9.72947     11.15797        -0.151851     -0.411686     -1.185249
Ti      13.62392      9.74176     11.17103        -0.066402     -0.582481     -1.160580
Ti       5.82411      1.94236      2.35042         0.120842     -0.399322     -1.044359
Ti       5.81142      1.92981     15.55875         0.197275     -0.014578     -1.083445
Ti       5.81291     13.63012      2.35139         0.396195     -0.115818     -1.260430
Ti       5.84095     13.63895     15.56065        -0.080370     -0.206235     -0.009086
Ti       5.81557      1.92299      6.75573         0.184145     -0.173325     -0.835993
Ti       5.82013     13.62476      6.75904         0.398993      0.011369     -0.933600
Ti       5.83589      1.90770     11.15911        -0.006733      0.563695     -1.177795
Ti       5.80028     13.63597     11.15884         0.427277     -0.190214     -1.350013
Ti       5.84308      5.82369      2.35419        -0.329227     -0.081166     -1.597855
Ti       5.83352      5.84147     15.59263        -0.339393     -0.398712     -1.228130
Ti       5.79295      5.84056      6.75386         0.519056     -0.468785     -0.914694
Ti       5.80566      5.86154     11.17381         0.612578     -0.827296     -1.420079
Ti       5.84028      9.70760      2.33821        -0.148594      0.445786     -0.868070
Ti       5.81204      9.71304     15.57254        -0.034585      0.267172     -0.990890
Ti       5.83665      9.70749      6.77741         0.124387      0.719558     -1.864808
Ti       5.82664      9.71500     11.16767        -0.050744      0.347128     -0.742740
Ti       9.71979      1.93168      2.35640         0.400964     -0.065952     -1.087696
Ti       9.72355      1.92915     15.56143        -0.212130      0.056197     -0.809042
Ti       9.73703     13.62275      2.33305        -0.232788      0.046276     -0.949973
Ti       9.72100     13.63330     15.58408         0.141775     -0.117690     -1.283929
Ti       9.72106      1.90971      6.77021         0.137099      0.522999     -1.323787
Ti       9.72203     13.63182      6.76789        -0.170885     -0.130163     -1.307063
Ti       9.73405      1.92211     11.16851        -0.069042      0.039123     -1.049476
Ti       9.72769     13.62057     11.16119        -0.253576      0.056463     -1.257852
Ti       9.70747      5.84111      2.34483         0.434795     -0.364398     -1.185566
Ti       9.69669      5.83079     15.58546         0.468136     -0.352048     -1.616321
Ti       9.71060      5.83851      6.75912         0.093329     -0.150869     -1.239512
Ti       9.73271      5.83125     11.15942        -0.401019     -0.302298     -0.861744
Ti       9.73079      9.73135      2.35485        -0.348270     -0.092722     -1.340449
Ti       9.70591      9.71948     15.56739         0.039110      0.186585     -0.429144
Ti       9.73827      9.74416      6.75307        -0.481762     -0.217396     -1.112919
Ti       9.71516      9.71516     11.18445         0.286299      0.151363     -1.614962
O       1.91783      1.90083      0.47830         0.181198      0.209891      1.749712
O       1.88569      1.95888     13.71098         0.249630     -0.048810      1.545953
O       1.91213     13.63517      0.48309         0.041088     -0.027432      1.567696
O       1.95634     13.63603     13.71714         0.022079     -0.082120      1.539470
O      13.63709      1.96733      0.48078        -0.017273     -0.121348      1.234626
O      13.60328      1.92136     13.74381         0.125069     -0.082038      1.072155
O      13.62505     13.58007      0.45822         0.073701      0.094875      1.756030
O      13.64345     13.64670     13.70304        -0.107694     -0.095382      1.538106
O       1.93713      1.94815      4.89942        -0.207545     -0.148323      1.192237
O       1.92805     13.63434      4.90640         0.010214      0.012719      1.286726
O      13.62396      1.93312      4.88144         0.289779     -0.063284      1.457023
O      13.62249     13.63545      4.86067         0.098317      0.078066      1.542088
O       1.91132      1.95303      9.30841         0.203202     -0.162831      1.070554
O       1.92544     13.66039      9.27460         0.004174     -0.163115      1.547202
O      13.60963      1.94200      9.33238        -0.021295     -0.141618      1.353841
O      13.66616     13.65454      9.30865        -0.245307     -0.151774      1.365860
O       1.91270      5.83188      0.43928         0.106410      0.037766      1.735520
O       1.92730      5.82689     13.71135         0.057776     -0.173380      1.643428
O      13.64710      5.81025      0.46910        -0.187246      0.092812      1.435626
O      13.62471      5.84962     13.68759        -0.183562     -0.013621      1.695043
O       1.93385      5.89633      4.88661         0.006986     -0.288052      1.472408
O      13.63966      5.84936      4.89998         0.072068     -0.090176      1.762695
O       1.92421      5.82383      9.31176         0.137819      0.005665      1.232936
O      13.63851      5.86426      9.31870        -0.047464     -0.140865      1.129265
O       1.93036      9.71108      0.50449        -0.042571      0.131219      1.101730
O       1.92448      9.73968     13.73309         0.055301      0.079542      1.188455
O      13.65376      9.75924      0.48348        -0.174930     -0.168778      1.859281
O      13.62634      9.72327     13.69161        -0.039252      0.095859      1.755250
O       1.90318      9.68553      4.90293         0.152005      0.270098      1.160183
O      13.61728      9.74066      4.87753        -0.068447     -0.075014      1.303367
O       1.94572      9.67321      9.27695         0.016969      0.224254      1.696852
O      13.63189      9.68335      9.30097        -0.030018      0.332356      1.427602
O       5.83462      1.93068      0.49926        -0.078281      0.070907      1.325087
O       5.82218      1.94230     13.70304        -0.079672     -0.054277      1.311960
O       5.86792     13.60632      0.48192        -0.174401      0.070388      1.593347
O       5.86071     13.64501     13.76541        -0.198585     -0.029299      0.593126
O       5.84927      1.89466      4.90155        -0.174441      0.108171      1.291529
O       5.85464     13.65008      4.89068        -0.176411     -0.109574      1.374174
O       5.84374      1.96754      9.29168        -0.043562     -0.286606      1.706856
O       5.84650     13.63235      9.31164        -0.131077      0.000202      1.258306
O       5.82645      5.81036      0.43634         0.064469      0.005373      2.114339
O       5.82052      5.83575     13.71781         0.078968      0.050355      1.562500
O       5.81481      5.80879      4.89675        -0.129862      0.036089      1.665594
O       5.86445      5.81632      9.29108        -0.298311      0.312603      1.275630
O       5.83760      9.76572      0.47288         0.021791     -0.245985      1.482411
O       5.86225      9.71119     13.71335        -0.134819      0.018876      1.446950
O       5.84976      9.76115      4.89612        -0.178854     -0.108624      1.620919
O       5.86878      9.75197      9.32574        -0.290521     -0.201237      1.143762
O       9.72380      1.88880      0.50086        -0.034602      0.240795      1.282498
O       9.73479      1.94692     13.72275         0.037289     -0.206444      1.222245
O       9.74565     13.63297      0.47173        -0.048169      0.016138      1.497628
O       9.74779     13.61515     13.71489        -0.111355      0.071532      1.462032
O       9.76679      1.98889      4.90447        -0.234892     -0.273148      1.577532
O       9.75732     13.64000      4.88405        -0.027861     -0.058067      1.565953
O       9.72859      1.91747      9.32780         0.032769     -0.067192      0.952899
O       9.73380     13.58745      9.27750        -0.003116      0.119484      1.702762
O       9.72327      5.79568      0.46733        -0.115465      0.145868      1.662549
O       9.71078      5.79158     13.66465        -0.079873      0.270088      1.785028
O       9.72322      5.84545      4.88164         0.017033     -0.046232      1.718433
O       9.69361      5.84819      9.29897         0.127053      0.017775      1.464141
O       9.74650      9.72306      0.49130        -0.123247     -0.045623      1.459948
O       9.72455      9.76190     13.73836        -0.040919     -0.240960      1.045656
O       9.74420      9.74085      4.88849         0.035294      0.046624      1.654965
O       9.73259      9.69595      9.31758        -0.087156      0.168668      1.452275
O       3.89696      1.91280      2.73739        -0.343849      0.099684      0.035674
O       3.87333      1.96695     15.93062        -0.081552     -0.075053      0.140201
O       3.86943     13.64671      2.68004        -0.018471     -0.116088      0.199174
O       3.89334     13.66843     15.97231        -0.316425     -0.274165     -0.013084
O      15.54171      1.89445      2.66358         0.892787      0.208606      0.395910
O       0.01674      1.89612     15.97813        -0.437560      0.252388      0.043874
O      15.56773     13.58947      2.69905         0.390454      0.238307      0.203080
O      15.57091     13.64127     15.90811         0.326418     -0.184886      0.244920
O       3.89215      1.88130      7.13296        -0.492535      0.250793     -0.077769
O       3.89748     13.66385      7.11883        -0.479976     -0.103224     -0.013085
O      15.55527      1.93027      7.16169         0.441888      0.030187     -0.297932
O      15.53869     13.63383      7.13812         0.441345     -0.014310     -0.137781
O       3.87554      1.92858     11.54208         0.430833     -0.082469      0.099798
O       3.85557     13.62761     11.50730         0.234674     -0.008508      0.304914
O       0.03385      1.90922     11.49125        -0.940936      0.040133      0.344622
O       0.00815     13.62546     11.53201        -0.456164     -0.049922      0.082174
O       3.90496      5.80225      2.69397        -0.349006      0.145873      0.059309
O       3.88796      5.86396     15.93498        -0.218045     -0.278379      0.164190
O      15.59976      5.79375      2.65107         0.138025      0.186866      0.264500
O      15.51312      5.80579     15.90976         0.879634      0.196760      0.293045
O       3.85029      5.83299      7.15572         0.534972     -0.026626     -0.166765
O      15.58503      5.85119      7.12562        -0.243975     -0.108774     -0.023912
O       3.88160      5.87122     11.51166        -0.215577     -0.277472      0.100018
O      15.56741      5.85831     11.53527         0.318413     -0.344511     -0.000083
O       3.89374      9.70676      2.71227        -0.125029      0.068420      0.117286
O       3.89182      9.75085     15.93088         0.052134     -0.211846      0.188460
O      15.54553      9.69921      2.70780         0.172132      0.240375      0.142941
O      15.57833      9.72121     15.92944        -0.116462      0.071472      0.232064
O       3.87056      9.76774      7.10863         0.094506     -0.188397      0.174590
O      15.59216      9.72495      7.12322        -0.130236      0.157076      0.018787
O       3.87290      9.69573     11.53439         0.160500      0.309122      0.032128
O      15.57557      9.72467     11.52337         0.170168      0.240253      0.041906
O       7.77619      1.92432      2.71798         0.044417      0.167660      0.129387
O       7.78237      1.91742     15.91208        -0.073904      0.035248      0.152225
O       7.81189     13.62324      2.71928        -0.076836     -0.041227     -0.015174
O       7.78777     13.68097     15.93360        -0.176493     -0.273275      0.093106
O       7.76645      1.95511      7.09295         0.353312     -0.220913      0.153214
O       7.78970     13.60529      7.13153        -0.177071      0.150765      0.003308
O       7.79030      1.91506     11.53592        -0.370082     -0.039068      0.127742
O       7.75990     13.65774     11.54270         0.436067     -0.227728      0.121149
O       7.74999      5.85882      2.71825         0.094913     -0.319043     -0.027309
O       7.79583      5.86060     15.94660        -0.381912     -0.059367      0.054836
O       7.79779      5.85969      7.08725        -0.509883     -0.051103      0.072146
O       7.74819      5.86380     11.49082         0.566762     -0.008092      0.298473
O       7.77331      9.71708      2.74242         0.027710      0.012262     -0.083790
O       7.79508      9.73820     15.95531        -0.034362     -0.300409     -0.029469
O       7.75692      9.72836      7.10023         0.362835      0.103185      0.166709
O       7.73999      9.74987     11.52602         0.451123     -0.125082      0.181595
O      11.67384      1.93394      2.71620        -0.037531      0.005144      0.082643
O      11.69962      1.91023     15.94827        -0.498547      0.112216      0.101819
O      11.71020     13.63331      2.67190        -0.335312     -0.065363      0.229125
O      11.68869     13.65764     15.90739        -0.279307     -0.150049      0.240478
O      11.68653      1.95009      7.08779        -0.234936     -0.305163      0.285162
O      11.68003     13.61866      7.08948         0.101018      0.127768      0.230111
O      11.67000      1.94973     11.50996         0.142914     -0.355155      0.220426
O      11.66972     13.61505     11.50987         0.093469      0.186409      0.064856
O      11.68269      5.82462      2.68510        -0.039508      0.220787      0.082001
O      11.65151      5.82545     15.91847         0.183029     -0.030403      0.245666
O      11.68306      5.83697      7.12745         0.057147      0.092786      0.016247
O      11.67686      5.81959     11.51382        -0.269704      0.212392      0.033025
O      11.60731      9.71463      2.69854         1.087092     -0.105360      0.188142
O      11.72237      9.75830     15.95562        -0.528703     -0.236610     -0.010500
O      11.69700      9.68533      7.14416        -0.507128      0.511490     -0.062255
O      11.68804      9.73973     11.52441        -0.205930     -0.155993      0.156879
O       1.93675      3.87179      2.71981         0.012852      0.023672      0.034370
O       1.89120      3.90604     15.90897         0.223724     -0.218225      0.304062
O       1.98507      0.00648      2.69064        -0.448559     -0.441328      0.249934
O       1.89313     15.59536     15.91667         0.376326     -0.392570      0.155367
O      13.61620      3.89629      2.71371         0.207485     -0.105147      0.162821
O      13.64041      3.87929     15.92433        -0.141331     -0.232968      0.211781
O      13.62235      0.00428      2.68828         0.128443     -0.662459      0.160425
O      13.62834     15.58383     15.92020         0.072790     -0.130599      0.327051
O       1.90285      3.86934      7.10839         0.130582      0.011064     -0.064168
O       1.91040     15.58132      7.14414        -0.024653     -0.036550     -0.194768
O      13.60754      3.85563      7.17938         0.223458      0.561258     -0.227343
O      13.64536      0.01415      7.15723        -0.208475     -0.474945     -0.172296
O       1.91821      3.84032     11.46651         0.225321      0.816515      0.367764
O       1.92430     15.56969     11.53212         0.190822     -0.191123      0.159805
O      13.60209      3.86596     11.55680         0.248775      0.049457     -0.021035
O      13.64402     15.58553     11.50092        -0.147598     -0.199145      0.253529
O       1.91176      7.82016      2.71665         0.144224     -0.762451     -0.025916
O       1.93734      7.77958     15.90470        -0.111123     -0.093241      0.406739
O      13.62556      7.75162      2.71137        -0.090747      0.440990      0.040923
O      13.64057      7.76058     15.94919        -0.213096      0.473638      0.132405
O       1.93161      7.78394      7.12798         0.186567     -0.176301      0.012579
O      13.60901      7.82610      7.13178         0.164720     -0.725785     -0.071535
O       1.95035      7.76930     11.54551        -0.113158      0.182629     -0.018980
O      13.69195      7.79293     11.54446        -0.560647     -0.043362      0.052772
O       1.97663     11.66279      2.68493        -0.268052      0.314208      0.235396
O       1.93292     11.64406     15.88468         0.025586      0.725902      0.405727
O      13.64062     11.65821      2.70601        -0.220097     -0.005743      0.188693
O      13.62385     11.68667     15.94306         0.139499     -0.194938      0.026730
O       1.94842     11.69088      7.13195        -0.082658      0.139066     -0.039939
O      13.63904     11.68801      7.08952        -0.164066     -0.014326      0.206791
O       1.91883     11.66968     11.49516         0.155667     -0.121923      0.168120
O      13.59840     11.69699     11.51110         0.257529     -0.100210      0.061328
O       5.82528      3.83906      2.73293         0.065992      0.571679      0.002122
O       5.82459      3.87359     15.94323         0.083884      0.107201      0.087719
O       5.85700     15.55459      2.70337        -0.115081      0.074690      0.124559
O       5.79961     15.59855     15.93041         0.071340     -0.068969      0.103494
O       5.84882      3.85544      7.15990        -0.276104      0.672154     -0.274692
O       5.83493     15.57097      7.15192         0.142213      0.002927      0.007566
O       5.84739      3.90685     11.48832        -0.206006     -0.366597      0.296398
O       5.83414     15.56165     11.51443        -0.160970      0.425437      0.202648
O       5.83801      7.77601      2.73371        -0.071915     -0.236315     -0.147685
O       5.82450      7.75699     15.98287         0.125550      0.453611     -0.049109
O       5.82726      7.81566      7.08457        -0.232875     -0.783245      0.202347
O       5.82171      7.77131     11.55579         0.037251      0.489414     -0.055375
O       5.82947     11.67429      2.69426        -0.050064      0.066423      0.213953
O       5.83320     11.65585     15.92922         0.049969      0.259941      0.034058
O       5.81177     11.69760      7.13237        -0.017368     -0.064588      0.128082
O       5.84445     11.72492     11.52623        -0.261536     -0.644558      0.254841
O       9.77402      3.90782      2.73928        -0.469934     -0.143417     -0.020096
O       9.69803      3.89527     15.90269         0.088159     -0.475528      0.263278
O       9.72284      0.00371      2.70685         0.135387     -0.476635      0.128094
O       9.71182     15.57475     15.95311         0.205299      0.082805     -0.015048
O       9.74081      3.87975      7.16376        -0.074583      0.131857     -0.095396
O       9.70206     15.56101      7.13109         0.160464      0.294788      0.010634
O       9.73235      3.84905     11.52907        -0.163402      0.513264     -0.014985
O       9.71361     15.55849     11.50428         0.186000     -0.030850      0.229698
O       9.71026      7.74344      2.73897         0.014267      0.315422     -0.057956
O       9.76126      7.74814     15.98224        -0.116503      0.695693     -0.160782
O       9.71749      7.81463      7.12348         0.079258     -0.173623     -0.005465
O       9.72693      7.79507     11.50886        -0.033761     -0.159185      0.270424
O       9.74196     11.66276      2.70772        -0.022116      0.270749      0.013574
O       9.71379     11.67205     15.94573         0.094150      0.008312      0.038139
O       9.69280     11.70151      7.15092         0.379225     -0.615550     -0.073382
O       9.76467     11.65509     11.52632        -0.320378      0.207012      0.141311
