  # total energy = -7879.41832343 
CRSYTAL
PRIMVEC
    15.2000000000000000    0.0000000000000000    0.0000000000000000
     0.0000000000000000   15.2000000000000000    0.0000000000000000
     0.0000000000000000    0.0000000000000000    17.000000000000000
PRESSURE
7.45329 7.13511 3.75694 -0.252927 0.049096 -0.105883
PRIMCOORD
320 1
Pb       3.83501      3.61760      4.13220         0.251334      0.331110      0.317887
Pb       3.77589      3.70177     16.85946         0.075215      0.293963      0.117672
Pb       3.80332     15.12387      4.12158         0.473560     -0.057747      0.841666
Pb       3.59991     15.18800     16.89247         0.853169     -0.112704      0.296639
Pb       0.02071      3.54859      4.15763        -0.286303      0.750692      0.264330
Pb      15.14744      3.81121      0.04000        -0.204628      0.095386     -0.101470
Pb      15.13881     15.08734      4.30757         0.301818     -0.261597     -0.132442
Pb      15.02601     15.19615      0.11832        -0.113533     -0.270848     -0.502139
Pb       3.70757      3.94926      8.59335         0.161890     -0.648149     -0.701113
Pb       3.80650     15.08591      8.60169        -0.536175      0.530829     -0.890174
Pb       0.12005      3.77679      8.52728        -0.187470      0.205035     -0.230218
Pb      15.15965     15.15149      8.28087         0.983471     -0.002503      0.184560
Pb       3.71848      3.82062     12.68236         0.000423      0.097265      0.001704
Pb       3.64650      0.10683     12.79391         0.387565     -0.512121     -0.204316
Pb      15.04919      4.02401     12.70638         0.078398     -0.903523     -0.374141
Pb      15.13699      0.16252     12.79339        -0.524190     -0.733323     -0.366125
Pb       3.83103      7.48488      4.15717         0.209389     -0.258850      0.000983
Pb       3.68442      7.53595     16.80726         0.264613     -0.117206      0.154103
Pb       0.01100      7.61101      4.28526        -0.413988     -0.114327     -0.721810
Pb      14.93998      7.54770      0.02817         0.621780     -0.044567     -0.181389
Pb       3.85089      7.65338      8.50810        -0.341045     -0.225310     -0.123733
Pb       0.13652      7.61175      8.43806        -0.278588      0.229181     -0.040733
Pb       3.75907      7.67066     12.75946         0.076522     -0.187277      0.122360
Pb       0.05527      7.68888     12.71964        -0.654250      0.086715     -0.092784
Pb       3.88820     11.15589      4.14776        -0.314112      0.851022      0.779932
Pb       3.75967     11.36882      0.06500        -0.252979     -0.376752     -0.675288
Pb       0.16133     11.27724      4.16610        -0.671773      0.222236     -0.081328
Pb      15.09507     11.36477      0.07439         0.499757     -0.000596     -0.233929
Pb       3.83636     11.38442      8.55451        -0.086384     -0.010825     -0.086895
Pb       0.16645     11.46832      8.31970        -0.525391     -0.609506      0.994478
Pb       3.75026     11.48233     12.78687         0.219742      0.042942     -0.508649
Pb       0.04351     11.41636     12.90774        -0.198471      0.188595     -0.985788
Pb       7.54705      3.73259      4.36361        -0.134256      0.151209     -0.962682
Pb       7.55001      3.71784     16.85958        -0.080739      0.170867     -0.089409
Pb       7.61231     15.08252      4.22369        -0.447539      0.360384     -0.014773
Pb       7.60355     15.19853     16.87544         0.043390     -0.301026      0.055811
Pb       7.38713      3.73497      8.76940         0.461540      0.054013     -0.867931
Pb       7.63645      0.00649      8.58821        -0.142030      0.125831     -0.690001
Pb       7.66672      3.91860     12.78785        -0.248385     -0.621645     -0.120539
Pb       7.50202     15.03852     12.80263         0.596491      0.543766     -0.629902
Pb       7.65449      7.53338      4.07147        -0.433558     -1.083446      0.484181
Pb       7.71945      7.65806     16.98524        -0.818255     -0.443948      0.051528
Pb       7.49565      7.59410      8.51799         0.445790     -0.524413      0.200057
Pb       7.48703      7.65786     12.66596         1.026611     -0.118384      0.401594
Pb       7.62506     11.37338      4.35306         0.076246      0.227963     -0.079160
Pb       7.53166     11.37128     16.90407         0.288981      0.244107      0.132768
Pb       7.69928     11.37521      8.68860        -0.462139      0.088259     -0.523938
Pb       7.61288     11.46284     12.78540         0.020113      0.121941     -1.059361
Pb      11.21752      3.75624      4.42810         0.467131      0.293254     -0.395279
Pb      11.24504      3.67313     16.99938         0.389421      0.556965     -0.825938
Pb      11.30806     15.14974      4.25136         0.572689     -0.077552      0.361882
Pb      11.34520      0.13617      0.11020         0.011427     -0.724809     -1.077861
Pb      11.42348      3.88125      8.52576        -0.390345     -0.198207     -0.275076
Pb      11.50932      0.02348      8.31931        -0.203020      0.007290      0.297327
Pb      11.33562      3.84117     12.69630         0.453734     -0.023882     -0.181144
Pb      11.44812     15.18738     12.59538        -0.229860      0.005865     -0.104525
Pb      11.27654      7.55131      4.29550         0.546217     -0.561426      0.033850
Pb      11.41295      7.62319     16.98338        -0.362206     -0.484880     -0.199256
Pb      11.37841      7.57228      8.62049         0.082041     -0.055890     -0.964828
Pb      11.50454      7.73458     12.81195        -0.089805     -0.117361     -0.666199
Pb      11.26981     11.30143      4.26830         0.475841      0.271398      0.154498
Pb      11.35997     11.45540     16.99157        -0.180481     -0.030672     -0.033971
Pb      11.48267     11.35555      8.34771         0.411130     -0.075988      0.576374
Pb      11.42918     11.56356     12.54677         0.165683     -0.501920      0.240364
Ti       1.89988      1.79973      2.19284        -0.133441     -0.390904      0.174060
Ti       1.76384      1.85154     15.00680         0.504052      0.769028     -0.575723
Ti       2.01326     13.22506      2.18008        -1.342990     -0.384484     -0.289717
Ti       1.85822     13.22667     15.05160        -0.165372     -0.811182      0.824043
Ti      13.23498      1.82990      2.28958         0.185485      0.133973      0.497363
Ti      13.27953      1.86613     14.88020        -1.440844     -0.103707      0.457111
Ti      13.32615     13.17541      2.30837         0.188538      0.159890      0.297232
Ti      13.23595     13.25285     14.99662         0.414512      0.788241     -0.808226
Ti       1.93697      1.88987      6.42089         0.712177     -1.725923     -0.086749
Ti       2.01751     13.14741      6.38182         0.088290      2.465619      0.568149
Ti      13.34178      2.01601      6.56139        -1.174197     -1.046489     -0.390027
Ti      13.35950     13.20197      6.35503         0.280654      0.659992     -0.067081
Ti       1.76660      1.90945     10.72424         0.736240      0.489774     -0.735862
Ti       1.90086     13.38357     10.80671        -0.162187     -1.836661     -0.990099
Ti      13.28962      1.92000     10.58166        -0.077943      0.307646      0.550889
Ti      13.43463     13.36157     10.57087        -0.728809     -0.949997      1.728337
Ti       1.85051      5.62663      2.20258         0.369758      0.028957     -0.193666
Ti       1.82265      5.57465     14.87035        -0.061452      0.904518      0.561053
Ti      13.27508      5.58438      2.28802        -0.581293      0.527566      0.087793
Ti      13.23153      5.57066     14.98888        -1.059709      0.991538      1.356747
Ti       1.95231      5.63252      6.34597        -0.342865      0.228534      1.660916
Ti      13.41049      5.67365      6.42529        -1.984437     -0.089758      0.256479
Ti       1.85586      5.73608     10.73532         0.864117      0.420799      0.347784
Ti      13.31332      5.82654     10.61915        -0.427097     -0.038014      1.734562
Ti       1.93215      9.40391      2.17537        -0.877001     -0.304265     -0.779971
Ti       1.79452      9.39795     14.97784         0.421630      0.557757      0.548290
Ti      13.20709      9.42580      2.24600         0.838417     -0.248350      1.480292
Ti      13.22476      9.54297     15.01111        -0.173522     -1.035323     -1.059460
Ti       1.92303      9.41676      6.43673         0.896903     -0.399536      0.517261
Ti      13.28529      9.39666      6.48136         0.368239     -0.037776     -0.513344
Ti       1.90413      9.53289     10.81473        -0.735063      1.031449     -0.875681
Ti      13.30383      9.59830     10.65029         0.633119     -0.390887     -0.890752
Ti       5.69855      1.86379      2.15522         1.192007     -1.249430     -0.061352
Ti       5.64864      1.79688     14.89966        -0.155006      0.618991      1.568221
Ti       5.75391     13.19661      2.19918         0.060463      1.274430      0.812649
Ti       5.62854     13.27170     14.95200         0.976164     -0.168325     -0.755139
Ti       5.65724      1.85491      6.55472        -0.718814      0.176594     -0.562740
Ti       5.79670     13.26789      6.54592        -1.657137      0.240843      0.950217
Ti       5.60002      1.87872     10.77772         0.664943     -0.415093      0.554000
Ti       5.71138     13.41363     10.68244        -0.038157     -1.747364      1.736656
Ti       5.64891      5.64221      2.06171         0.697022     -0.330679      1.838368
Ti       5.69462      5.63950     14.83165        -0.548336      0.465910      0.747505
Ti       5.71408      5.62755      6.47098        -0.390585      0.374543     -0.828215
Ti       5.69551      5.71019     10.81190        -0.435069     -0.163618      0.676908
Ti       5.74211      9.43568      2.21383        -0.094154     -0.686955     -0.974002
Ti       5.64800      9.51502     14.89529        -0.439800     -0.768607      1.351489
Ti       5.75607      9.48022      6.50809        -1.062115     -0.011215      1.208926
Ti       5.70230      9.57132     10.78351        -0.405531      0.719953      0.335307
Ti       9.53821      1.79475      2.26558        -1.865446      1.031547      0.076901
Ti       9.45108      1.84477     14.80973         0.796708     -0.008847      1.105146
Ti       9.50634     13.21115      2.21303        -0.111994     -0.033271     -0.000882
Ti       9.54073     13.28447     14.81965        -0.061681      0.051810      1.161473
Ti       9.42741      1.92352      6.55413         0.741962     -0.422064      1.530670
Ti       9.56608     13.28877      6.54712        -1.141105     -0.044780     -0.717531
Ti       9.44159      1.90039     10.66055        -0.021011     -0.857423      0.534492
Ti       9.55601     13.30614     10.55338         0.282457      0.284466      2.319645
Ti       9.53363      5.58357      2.10825        -1.616623     -0.051191      0.285627
Ti       9.42426      5.73640     14.95603         0.709357     -0.469448      0.577731
Ti       9.46388      5.65557      6.57102         0.372833      0.437893     -0.315393
Ti       9.50339      5.66286     10.74070         0.305661      1.085552      0.582421
Ti       9.48823      9.44170      2.27479        -0.084439      0.218059      0.481658
Ti       9.45909      9.55848     14.89374         0.542033     -0.589244     -0.442425
Ti       9.43353      9.48043      6.62224         0.769032     -0.761660      0.546872
Ti       9.52870      9.45926     10.67620         0.407470      0.379815      2.304749
O       1.86378      1.65500      0.37477        -0.207147      0.649151      0.923021
O       1.76844      1.97309     13.19865        -0.044031     -0.261470      0.360960
O       1.97244     13.08589      0.29806        -0.159761      0.764003      1.442099
O       1.95329     13.08652     13.30424        -0.535168      0.592056     -0.969357
O      13.15126      1.83892      0.51295         0.386851     -0.391709     -0.249868
O      13.28394      1.93888     13.09142         0.158004     -0.119779      0.633447
O      13.43242     13.16223      0.50757        -0.280142      0.548303     -0.187538
O      13.14406     13.34730     13.20659         0.540200     -0.361528      0.406129
O       2.01545      1.79020      4.58825        -0.252572      0.506196      0.504812
O       1.99909     13.14816      4.63559         0.194273      0.156436     -0.740732
O      13.03398      1.96665      4.79647         0.937357     -0.070196     -0.333844
O      13.35290     13.23276      4.56380        -0.109178     -0.186982      0.710564
O       1.74324      1.95816      8.93707         0.262748     -0.140831      0.296301
O       1.91381     13.22325      9.00583        -0.193346      0.503238      0.701998
O      13.37816      1.82584      8.79835        -0.087455      0.087911      0.354437
O      13.42076     13.30520      8.83009        -0.033725     -0.093657     -0.798379
O       1.89268      5.55153      0.42815        -0.506232      0.339538      0.175256
O       1.70691      5.61265     13.08200         0.299482     -0.091605      0.559755
O      13.26677      5.52485      0.45124         0.156672      0.415641      0.903825
O      13.21731      5.68184     13.23916         0.200281     -0.229976     -0.526387
O       1.94227      5.62407      4.62943         0.156950     -0.057562     -1.416029
O      13.14162      5.55119      4.66702         0.483574      0.284182     -0.131088
O       1.87133      5.73600      8.95113        -0.000108      0.048100     -0.008793
O      13.36151      5.93200      8.90228        -0.114826     -0.316040     -0.620665
O       1.95365      9.41577      0.37615         0.042180     -0.240899      0.720428
O       1.77852      9.51465     13.17999        -0.088233      0.117253      0.222736
O      13.14499      9.29209      0.49995         0.229604      0.699334     -1.237351
O      13.18828      9.57137     13.19324         0.277359     -0.196509      0.893094
O       2.08173      9.41729      4.66892        -0.623277     -0.011503     -0.577444
O      13.30139      9.34727      4.64899        -0.038463      0.214692      1.057493
O       1.92829      9.49956      9.01571        -0.019778     -0.151018     -0.104504
O      13.34467      9.54957      8.82075        -0.231396     -0.393179      0.449181
O       5.73802      1.86455      0.36096        -0.220845     -0.125633      0.199435
O       5.67662      1.74820     13.18513        -0.340670      0.112009     -1.239624
O       5.76613     13.13590      0.45848        -0.014939      0.414911     -0.779962
O       5.77803     13.27569     13.12657        -0.284116     -0.158575      1.051251
O       5.59205      1.86150      4.73231         0.281617      0.092533      0.679310
O       5.66597     13.30442      4.80882         0.222503     -0.154002     -0.810320
O       5.60593      2.00775      9.02436         0.191937     -0.404324     -0.799543
O       5.62607     13.44772      8.95088         0.426802     -0.240886     -0.991717
O       5.69991      5.60145      0.34423        -0.147437     -0.175534     -1.529386
O       5.75463      5.60532     13.05608         0.028663     -0.121146      0.053525
O       5.73038      5.56097      4.63293        -0.173333      0.289379      1.288831
O       5.70139      5.73386      9.04153        -0.246158     -0.391242     -0.235934
O       5.82370      9.36816      0.42382        -0.473089      0.399578      0.565251
O       5.68855      9.57311     13.16185         0.262299      0.242671     -1.087520
O       5.64034      9.43420      4.74639         0.315142     -0.142664     -0.331391
O       5.68532      9.53997      9.01045        -0.070562     -0.346024      0.404373
O       9.54429      1.72869      0.45867        -0.076784      0.404568      0.141926
O       9.41768      1.75358     13.09477         0.378999      0.460653     -0.709944
O       9.38688     13.24153      0.43360         0.362060     -0.111742      0.832922
O       9.58689     13.27721     13.03724        -0.258753     -0.048215      0.497241
O       9.48914      1.80435      4.80682         0.116540      0.100990     -1.437915
O       9.45376     13.19612      4.72597         0.268228      0.398375      0.563223
O       9.45740      2.00282      8.87996        -0.100713     -0.388927      0.364945
O       9.60115     13.22304      8.82263        -0.308191      0.175140     -1.116199
O       9.41065      5.61311      0.29712         0.068029     -0.251136      0.849863
O       9.34436      5.71834     13.19878         0.487774     -0.053446     -0.937566
O       9.42429      5.65841      4.73896        -0.035767      0.165643      0.757060
O       9.48243      5.54767      8.99799         0.101677      0.446979     -0.596597
O       9.50587      9.52463      0.55335        -0.252004     -0.032481     -1.106789
O       9.55440      9.49807     13.10865        -0.227519      0.320928      0.970628
O       9.39314      9.47359      4.87562         0.138703     -0.410421     -1.336935
O       9.49982      9.44889      8.95168         0.149631      0.405559     -1.384680
O       3.81117      1.81549      2.54271        -0.316366     -0.091732     -0.501301
O       3.65913      1.83454     15.31836         0.906378     -0.227589     -0.163935
O       3.82554     13.27323      2.53149         0.637243     -0.642824     -0.224661
O       3.82447     13.24186     15.22653        -1.306489      0.300016      0.554296
O      15.15388      1.72082      2.65277         0.752247      0.085550     -0.441194
O      15.09375      1.95665     15.39532         0.259219     -0.308606      0.005049
O       0.07423     13.26360      2.68572         0.094776     -0.145488     -0.469989
O      15.16593     13.09040     15.33618         0.381080      0.273306     -0.047082
O       3.75707      1.86712      6.93395         0.011747      0.215312     -0.119389
O       3.81174     13.36811      7.06463        -0.016123     -0.582210     -0.928930
O       0.00224      1.92823      6.70619         0.277434      0.232564      0.050334
O       0.08507     13.27722      6.71184        -0.444892     -0.259256     -0.072001
O       3.68310      1.77779     11.09291         0.182943      0.125722      0.329883
O       3.80764     13.40679     11.14740        -1.085443      0.369188      0.064478
O      15.16470      1.99757     11.02415        -0.772197      0.145955      0.537068
O      15.18181     13.16183     11.22679         0.225384      0.316141     -0.160161
O       3.75771      5.67267      2.39586        -0.040198     -0.548579      0.659203
O       3.70684      5.57394     15.03923         0.669145      0.140401      0.557829
O      15.15563      5.52428      2.75021         0.347124      0.683164     -0.684757
O      15.10331      5.55545     15.35900         0.215948     -0.123655     -0.139798
O       3.76067      5.76086      6.90189         0.735144     -0.273929     -0.186791
O      15.19598      5.67682      6.76821         1.415160     -0.198181     -0.028408
O       3.78671      5.80169     11.19069        -0.005164     -0.788923     -0.307406
O       0.00605      5.71821     11.06460        -0.713582      0.213363     -0.109524
O       3.83327      9.40932      2.56118        -0.016524      0.167143     -0.192211
O       3.74904      9.27860     15.19889         0.199803      0.473676      0.227580
O      15.12892      9.42678      2.56436         1.561910     -0.243870      0.057619
O      15.07938      9.47147     15.41176         0.857430     -0.263924     -0.107567
O       3.78357      9.42414      6.95189         0.665846      0.224498     -0.272391
O       0.07779      9.46747      6.84122        -0.532132     -0.076872     -0.443319
O       3.76084      9.50053     11.20636         1.151136      0.063206     -0.119757
O      15.14426      9.49461     11.04632         1.064761      0.466596      0.519294
O       7.61154      1.73504      2.55161         0.563549      0.134510      0.144963
O       7.57377      1.77806     15.19918        -0.024404      0.162753      0.376033
O       7.64913     13.13828      2.72179        -0.470091      0.625459     -0.475966
O       7.63096     13.21534     15.19644        -0.447884     -0.196740      0.084645
O       7.57838      1.91292      6.86442        -0.724391      0.234809      0.312284
O       7.57410     13.25373      6.91300         0.854159      0.066277      0.252443
O       7.57749      1.94162     10.97162        -0.067546     -0.001018     -0.066863
O       7.64761     13.20822     11.00054        -0.362976      0.291734     -0.116877
O       7.51382      5.72112      2.43661         1.169794     -0.212819      0.260230
O       7.53413      5.49397     15.22761        -0.092979      0.071972      0.299076
O       7.54316      5.69139      6.92033         0.239316     -0.054744     -0.084811
O       7.62403      5.69547     11.08043        -0.973503     -0.560868      0.065412
O       7.60980      9.41417      2.66097        -0.374559      0.069176     -0.171236
O       7.54001      9.57396     15.30915         0.592956     -0.034909     -0.294327
O       7.61683      9.51483      7.12866        -1.034531     -0.147225     -0.869286
O       7.63113      9.61352     11.10239        -1.155246      0.061220     -0.080152
O      11.41167      1.84657      2.65980        -1.173658     -0.034966     -0.034332
O      11.37614      1.75654     15.30127        -0.117434     -0.063033      0.034706
O      11.41706     13.10391      2.57188        -0.574268      0.157995     -0.043696
O      11.41210     13.25768     15.33887        -0.824052     -0.104127      0.421849
O      11.37858      1.87931      6.92087        -0.046539      0.109660      0.006997
O      11.43036     13.30874      6.69566         0.629820     -0.327453      0.225635
O      11.46089      1.81587     10.99756        -0.723607      0.283242     -0.159195
O      11.46115     13.36527     10.94353        -0.163536      0.428757     -0.073179
O      11.30972      5.56771      2.60596         1.063601      0.068533     -0.205634
O      11.28312      5.64366     15.35882         0.775136      0.449048     -0.189184
O      11.41274      5.69367      6.87296        -0.459316     -0.104708      0.236260
O      11.40608      5.76991     11.10722         0.023716      0.226282     -0.206935
O      11.34094      9.39529      2.68340        -0.075013      0.633699      0.216533
O      11.35324      9.42240     15.36389        -0.767892     -0.070636      0.055930
O      11.39820      9.40442      6.86291         0.288668      0.622212     -0.042388
O      11.45030      9.41358     10.97488        -1.090925     -0.307270      0.190230
O       1.90325      3.67690      2.52739        -0.290188     -0.227105     -0.169725
O       1.87361      3.75769     15.44816        -0.452117     -0.564747     -0.405600
O       1.97960     15.05638      2.53745        -0.394056      1.046599     -0.302456
O       1.85110     15.15188     15.29302        -0.556863     -0.429520     -0.129999
O      13.31889      3.71032      2.59650        -0.052874     -0.349026      0.042678
O      13.06771      3.71835     15.42555         0.709469     -0.235056     -0.579595
O      13.23379     15.09595      2.69255         0.056948      0.502333     -0.357612
O      13.34531     15.12826     15.36288         0.274461      0.823372      0.139538
O       1.92404      3.77200      6.86569        -0.106641      0.352246     -0.146831
O       1.84665     15.16427      6.73980         0.147572      0.393004      0.084195
O      13.27773      3.83108      7.02804         0.245637      0.027653     -0.392581
O      13.36381     15.14858      6.79817        -0.244621      0.078944     -0.458415
O       1.93372      3.87878     11.01601         0.006556     -1.011381      0.054783
O       1.66448      0.01475     11.18340         0.514176      0.284974      0.047108
O      13.25520      3.87044     10.93666         0.075202     -0.136070     -0.009605
O      13.41226     15.19800     11.06871         0.166577      0.566843     -0.239966
O       1.87355      7.55834      2.51622        -0.105420     -0.717242      0.361413
O       1.83769      7.48787     15.27844        -0.494246     -0.281927      0.023079
O      13.24970      7.54504      2.55111         0.134393     -1.392014      0.312462
O      13.22022      7.56105     15.47980         0.100826     -0.603916     -0.722719
O       1.90277      7.52847      6.71387        -0.290118      0.290486      0.258160
O      13.33434      7.53295      6.76513         0.144826      0.815881      0.045034
O       1.93377      7.66819     11.21689        -0.614707     -1.020441     -0.300973
O      13.40950      7.69300     11.22471        -0.740229     -1.233066     -0.554978
O       1.94168     11.29332      2.57862         0.053091      0.248166     -0.288169
O       1.93290     11.24069     15.43413         0.074808      0.525497     -0.442604
O      13.39581     11.29568      2.50163        -0.412970      0.240908      0.385249
O      13.21709     11.35064     15.37791        -0.026496      0.235567      0.429344
O       1.97818     11.35417      6.75433         0.058488     -0.751833      0.253895
O      13.44588     11.36919      6.76623        -0.890992     -0.185281     -0.183593
O       1.92648     11.44301     11.13668         0.038221     -0.217168      0.357203
O      13.15330     11.42037     10.95344         0.487629      0.668730      0.034949
O       5.82692      3.63490      2.61446        -0.699369      1.552828     -0.310828
O       5.59490      3.67648     15.26957         0.268638      0.450949     -0.079878
O       5.78691     15.10570      2.66005        -0.391254     -0.167086     -0.503676
O       5.62991     15.13797     15.33262         0.194199     -0.170782      0.120146
O       5.56988      3.82440      6.90932         0.398079     -0.368774      0.134796
O       5.68406      0.05241      6.97605         0.337060     -0.789241     -0.058800
O       5.65860      3.67325     11.16227        -0.328525      2.103996     -0.023532
O       5.70101     15.16739     11.19993         0.234813      1.379045     -0.094648
O       5.62555      7.50715      2.50206         0.292720      0.815333      0.269364
O       5.71062      7.51744     15.10590         0.206434      0.080350      0.385922
O       5.69004      7.58623      6.94163         0.229350      0.116129     -0.296919
O       5.65760      7.59363     11.18168         0.420746      0.747054     -0.464349
O       5.73290     11.35465      2.65748        -0.077887     -0.850602     -0.298734
O       5.50982     11.38820     15.39614         0.770787     -0.714351     -0.333158
O       5.64505     11.34997      6.94015         0.206407      0.156400     -0.315992
O       5.57559     11.53118     11.01333         0.358720     -1.825570      0.161777
O       9.43108      3.74197      2.70993        -0.069433     -0.478587     -0.636148
O       9.53455      3.75112     15.14665        -0.351086     -0.955057      0.335260
O       9.55099     15.13320      2.56108         0.152023     -0.824618      0.302379
O       9.50798     15.09952     15.26363        -0.209876      0.521575      0.130395
O       9.48317      3.79828      6.91750         0.128802     -0.094659     -0.484163
O       9.40024     15.13326      6.90966         0.382376      0.693835      0.020107
O       9.55447      3.78406     11.14820        -0.103252     -0.017113      0.087733
O       9.39702      0.01624     11.06108         0.417863     -0.464967     -0.692459
O       9.53844      7.49217      2.51844        -0.443190      0.455171      0.270433
O       9.34115      7.60686     15.34155         0.311293      0.667920     -0.300290
O       9.52799      7.56301      7.00696        -0.540841     -0.077930     -0.184854
O       9.36149      7.62101     11.11475         0.518782     -0.385496     -0.440632
O       9.44728     11.34081      2.83813         0.251199     -0.625056     -1.000635
O       9.56777     11.38335     15.44850        -0.357633     -0.098290     -0.853731
O       9.43376     11.38790      6.83435         0.495726     -0.213504      0.476175
O       9.57769     11.42874     11.00184        -0.025598     -0.362203     -0.278223
