  # total energy = -7866.45876436 
CRSYTAL
PRIMVEC
    15.010000000000000    0.0000000000000000    0.0000000000000000
     0.0000000000000000   15.010000000000000    0.0000000000000000
     0.0000000000000000    0.0000000000000000    16.400000000000000
PRESSURE
19.3632 19.6094 10.8001 -0.172499 -0.083935 0.012113
PRIMCOORD
320 1
Pb       3.62264      3.73476      4.01556         0.553391     -0.721965      1.649897
Pb       3.71969      3.69401     16.38008         0.350215      0.754010      0.827951
Pb       3.79872     14.91591      4.09939        -0.099639      0.396434      0.347684
Pb       3.69640     14.97631      0.02938        -0.050745     -0.018962      0.122434
Pb       0.00894      3.74898      4.11955         0.181006     -0.134461      0.477179
Pb      14.99452      3.81658      0.03523         0.185499     -0.310060      0.616526
Pb       0.00804     14.96476      4.05412         0.347690      0.337826      0.456214
Pb       0.00884      0.02437     16.35575         0.067488     -0.298424      0.504859
Pb       3.80969      3.75460      8.13198        -0.502199     -0.212255      0.719362
Pb       3.74648     14.99258      8.19830         0.097389     -0.183882      0.518986
Pb      14.98046      3.69131      8.08283         0.239993      0.102648      1.568285
Pb       0.05171      0.06388      8.21472         0.045098     -0.575354      0.793388
Pb       3.72622      3.69796     12.38596         0.110268      0.243049     -0.305473
Pb       3.75784     14.97385     12.25182        -0.412799     -0.102508      0.792984
Pb      14.94264      3.76160     12.27430         0.703615      0.049394     -0.127203
Pb      14.94146     14.99818     12.30900         0.570423      0.544893      0.058278
Pb       3.83532      7.46066      4.13545        -0.634155      0.651348      0.634529
Pb       3.69679      7.53953     16.27543         1.325198     -0.628612      2.416296
Pb      14.94244      7.50820      4.08553         0.727929     -0.094661      0.477305
Pb       0.01038      7.50490     16.36141        -0.189088     -0.424111      0.379922
Pb       3.75295      7.42052      8.29297        -0.245205      1.131507      0.292995
Pb      14.95128      7.45635      8.09942         0.517380      0.727033      1.622138
Pb       3.74912      7.39864     12.36869        -0.766138      0.199845     -0.339674
Pb      14.97575      7.57282     12.30875         0.250161     -0.582357     -0.059831
Pb       3.77865     11.26263      4.01086        -0.352332     -0.402697      0.893993
Pb       3.72589     11.37300      0.04224         0.150917     -0.933740      0.318137
Pb      14.92604     11.30941      4.09705         0.852393     -0.405390      0.404931
Pb      14.96686     11.12848     16.37093         0.149816      0.902386      0.743668
Pb       3.72984     11.29554      8.19637        -0.380248     -0.348761      0.613228
Pb      14.92682     11.28859      8.15873         0.870182     -0.907447      1.106422
Pb       3.70933     11.17770     12.33563         0.201568      0.438972      0.386741
Pb      14.94349     11.20563     12.30324         0.615067      0.206016      0.295210
Pb       7.44810      3.68856      4.17055         0.024781      0.246891     -0.267554
Pb       7.45353      3.66842      0.03412        -0.011079      0.940622      0.630274
Pb       7.48840      0.02660      4.07476        -0.243484     -0.091112      0.873657
Pb       7.61548      0.02724      0.04195        -0.193413     -0.260144      0.275432
Pb       7.48978      3.78275      8.18969         0.130777      0.063107      0.798469
Pb       7.46889     14.84893      8.20518        -0.210565      0.619934      0.411539
Pb       7.56152      3.68843     12.33814        -0.785766      0.089570      0.152980
Pb       7.45433      0.07428     12.29297         0.258775     -0.353175      0.694771
Pb       7.53001      7.48151      4.20343        -0.117998     -0.006133     -0.370534
Pb       7.44017      7.47545     16.39144         0.319122     -0.200185      1.331486
Pb       7.45784      7.50577      8.07521         1.146729      0.144215      1.277452
Pb       7.42694      7.46170     12.25944         0.128471      0.487222      0.449249
Pb       7.39466     11.20087      4.08912         0.199623     -0.004196      0.858069
Pb       7.46229     11.21219     16.36845         0.242386     -0.322942      0.438800
Pb       7.42964     11.21986      8.24140        -0.056010     -0.387414      0.621275
Pb       7.45332     11.22529     12.38534         0.065865     -0.041567      0.072859
Pb      11.36438      3.70005      4.09726        -0.331963     -0.059241      0.582510
Pb      11.20741      3.69851      0.00918        -0.032241      0.250333      0.481227
Pb      11.16598      0.00119      4.06741        -0.037692     -0.205346      1.178867
Pb      11.33631      0.03386     16.34516        -0.629486      0.031468      0.763288
Pb      11.21158      3.68537      8.20481         0.271932      0.656852      0.877227
Pb      11.23479     14.98670      8.14158        -0.099830     -0.555519      0.932912
Pb      11.27020      3.73972     12.34983        -0.039364      0.455505     -0.277537
Pb      11.24327     14.88010     12.24966         0.016293      0.630909      0.668079
Pb      11.20393      7.49050      4.04503         0.310413      0.083971      0.614805
Pb      11.29478      7.49338     16.33017        -0.541417     -0.075508      0.848699
Pb      11.34586      7.52509      8.16635        -1.198589     -0.144092      0.391255
Pb      11.21219      7.58482     12.34527         0.312553     -0.960473      0.123315
Pb      11.15498     11.26899      4.07318         0.415438     -0.413312      0.828829
Pb      11.22868     11.35757     16.36083        -0.342392     -0.739680      0.929831
Pb      11.26487     11.23559      8.08241        -0.860294      0.108907      1.322580
Pb      11.28584     11.17524     12.32719        -0.559632      0.842609      0.334521
Ti       1.92459      1.88498      2.12121        -1.539104     -0.820045      0.698281
Ti       1.84457      1.88579     14.49076        -0.261413     -0.382898     -1.591027
Ti       1.92214     13.11868      2.14298        -0.870967      0.126936     -0.428659
Ti       1.91372     13.11754     14.42313        -1.402721     -0.166478     -0.665519
Ti      13.13642      1.84088      2.20587         0.586794      0.135553     -0.542553
Ti      13.12089      1.93941     14.36598         0.023503     -1.523099      0.980222
Ti      13.06700     13.10152      2.21544         0.339973     -0.103758     -0.631870
Ti      13.15316     13.13935     14.55243         0.285840      0.388276     -0.994611
Ti       1.89881      1.86317      6.23429        -0.457842      0.003569     -1.020159
Ti       1.80368     13.08524      6.22707         0.578955     -0.255874      0.683054
Ti      13.12619      1.77676      6.31508        -0.359153      0.481846     -1.257947
Ti      13.12374     13.06193      6.30583        -0.568234      0.882607     -0.281009
Ti       1.94270      1.84328     10.32913        -1.264765      0.141776      0.797907
Ti       1.88106     13.07192     10.41432        -0.241920      1.259590     -1.322107
Ti      13.10460      1.90053     10.34047         0.979933     -0.807692     -0.418604
Ti      13.16005     13.11091     10.40119        -0.215086      1.446577     -1.070656
Ti       1.94478      5.64110      2.16946        -1.085758      0.020262     -0.657712
Ti       1.87717      5.60246     14.44603        -0.126190      0.018791     -0.784246
Ti      13.17314      5.62197      2.16224         0.117673      0.137132     -0.047629
Ti      13.11217      5.58374     14.53152         0.041805      0.843934     -1.929862
Ti       1.86476      5.66951      6.30060         0.337141     -0.940725     -0.669700
Ti      13.14328      5.60257      6.26501        -0.754422     -0.372048     -0.079535
Ti       1.86043      5.57361     10.24974         0.012538      0.321482      1.705443
Ti      13.19016      5.64230     10.25308        -1.399047     -0.321546      1.621674
Ti       1.93578      9.33545      2.17435         0.639854      0.370006      0.412388
Ti       1.87987      9.40925     14.58720        -0.156265     -0.111458     -1.849121
Ti      13.24909      9.35944      2.10332        -1.791874      0.320233      0.155603
Ti      13.06278      9.40386     14.44890         0.624944     -0.748670      1.197110
Ti       1.85621      9.33578      6.25886         0.700414      0.417833      0.181305
Ti      13.11462      9.33222      6.20146         0.327235      0.715337     -0.868690
Ti       1.88959      9.37842     10.39194        -0.242800     -1.365366     -0.905884
Ti      13.05967      9.40168     10.30267         1.611347     -1.111204     -0.684175
Ti       5.58806      1.87178      2.10279         1.061449     -0.232700      0.690920
Ti       5.61784      1.82304     14.49139        -0.259050      0.302841     -1.002858
Ti       5.71654     13.11660      2.03518        -1.408625      1.207511      1.169862
Ti       5.65130     13.13090     14.47808        -0.876456     -0.484273     -0.862391
Ti       5.65308      1.90102      6.25819        -0.890303     -1.058525     -1.105327
Ti       5.57188     13.10543      6.27016        -0.133859      0.261247      0.220423
Ti       5.63613      1.88335     10.35776        -1.487848      0.435166     -0.831857
Ti       5.66179     13.12310     10.45381        -1.071503     -0.090286     -1.391454
Ti       5.63246      5.62458      2.26983         0.644914      0.840604     -1.222087
Ti       5.61592      5.58004     14.48603         0.324852     -0.751349     -0.558838
Ti       5.62897      5.66621      6.27906        -0.256036     -1.227525     -1.144966
Ti       5.61310      5.66708     10.36678        -0.628816     -1.630478      0.026599
Ti       5.67961      9.42756      2.10908        -0.567328     -3.061542     -0.580450
Ti       5.59803      9.31727     14.42014         0.585293      1.151012      0.339425
Ti       5.56294      9.35554      6.26535        -0.204081      0.651905     -0.579372
Ti       5.59282      9.38781     10.40809         0.332600      0.194362     -1.431333
Ti       9.35517      1.88201      2.19785        -0.027116      0.077890      0.039707
Ti       9.33757      1.89230     14.51460         0.598965     -0.497796     -0.900209
Ti       9.30074     13.08638      2.19169         0.291487     -0.391898     -0.951413
Ti       9.35559     13.14773     14.43929        -0.109845     -0.332713     -0.335255
Ti       9.35373      1.84617      6.29362        -0.135387     -0.397784     -1.224518
Ti       9.27798     13.05807      6.30442         0.412969      1.028165     -1.345116
Ti       9.37556      1.88490     10.35250         0.341952     -0.512583      0.194860
Ti       9.32567     13.08744     10.47874         0.525257      0.049422     -1.499823
Ti       9.39065      5.61374      2.21727        -0.963175      0.406786     -0.274087
Ti       9.31186      5.64635     14.40385         0.550937     -0.543988      0.263786
Ti       9.40682      5.56320      6.26232        -0.064068      1.063216      0.877782
Ti       9.32911      5.68219     10.43051         1.071913     -1.593235     -2.090598
Ti       9.44200      9.37198      2.22843        -1.058184     -1.001057     -0.872195
Ti       9.32150      9.37932     14.47248         0.079799     -0.394183     -0.253142
Ti       9.36159      9.38809      6.22258        -0.114088     -1.515725      0.854504
Ti       9.40248      9.36656     10.27533        -2.215775      0.269293     -0.840011
O       1.75957      1.78400      0.33596         0.295370      0.239667     -0.503355
O       1.79441      1.85083     12.65970         0.113579      0.459932      1.176386
O       1.85314     13.14940      0.32771         0.156604     -0.081995      0.867534
O       1.96885     13.13057     12.59512        -0.309407     -0.376502      0.579130
O      13.04625      1.89497      0.37954         0.217648     -0.328010      0.797372
O      13.17728      1.86509     12.61337        -0.154722      0.457344     -0.369024
O      12.96255     13.12707      0.38778         0.273724     -0.061944      0.352746
O      13.13576     13.20738     12.74457        -0.122743     -0.649483     -0.029878
O       1.86129      1.84528      4.40593         0.048182      0.208698      0.678838
O       1.91341     13.10325      4.44838        -0.199687     -0.103871     -0.688126
O      13.08318      1.79523      4.47185         0.024735      0.399799      0.372424
O      13.08378     12.99579      4.53417         0.149944      0.287426     -0.794178
O       2.03028      1.77079      8.54031        -0.455368      0.140263     -0.688736
O       1.64808     13.18851      8.53419         0.624950     -0.271780      1.188632
O      13.03803      1.87548      8.51343        -0.167503     -0.314594     -0.306049
O      13.20287     13.09436      8.57664        -0.352648      0.103978      0.335995
O       1.90874      5.55345      0.36167        -0.080584      0.447244      0.254813
O       1.84874      5.47305     12.60447         0.138777      0.471508      1.346100
O      13.20634      5.67531      0.35916        -0.381276     -0.289733     -0.111983
O      13.11082      5.57996     12.67069        -0.027584     -0.406739      1.014719
O       1.77357      5.56036      4.52423         0.297715      0.106448     -0.718959
O      13.21277      5.60357      4.48411        -0.296312      0.111726     -0.543152
O       1.88528      5.58730      8.50791        -0.207122      0.292729     -1.033003
O      13.19499      5.69289      8.49302        -0.440105     -0.197400     -0.464149
O       1.85081      9.40491      0.37210        -0.016521     -0.339871     -0.469875
O       1.86434      9.40336     12.74347        -0.073097     -0.061841      0.764539
O      13.03859      9.32922      0.29945         0.686534      0.149891      0.125902
O      13.10409      9.53224     12.70006        -0.116701     -0.499424     -1.602611
O       1.89122      9.31638      4.50282        -0.104016      0.201508     -0.913809
O      13.16607      9.36644      4.39006        -0.084135     -0.052257      0.523165
O       1.93451      9.35877      8.59805        -0.076747     -0.161067      0.483798
O      13.05956      9.31451      8.48139        -0.127860      0.329452      1.173775
O       5.61610      1.87341      0.30577        -0.027522     -0.439700      0.029605
O       5.74650      1.88166     12.63305        -0.518283     -0.168722      1.361085
O       5.66098     13.15822      0.28697        -0.172334      0.028044     -0.520998
O       5.57827     13.13595     12.65509        -0.038912     -0.054847      0.274332
O       5.60850      1.93198      4.39172         0.200071     -0.145896      1.004427
O       5.57368     13.15401      4.49528         0.179054     -0.593048     -0.419329
O       5.49189      1.76155      8.49831         0.140618      0.571461      0.917900
O       5.65678     13.12539      8.54275         0.138775     -0.110325      0.887797
O       5.57040      5.63178      0.45665         0.101201     -0.171956     -0.441588
O       5.59636      5.49372     12.68108        -0.171814      0.444695      0.151045
O       5.63307      5.70000      4.46155         0.017318     -0.704640      0.674053
O       5.75291      5.64513      8.56523        -0.401979     -0.140805     -0.222641
O       5.61756      9.37224      0.27373         0.133536     -0.149556      0.998145
O       5.64825      9.39853     12.60933         0.140783     -0.279407      0.484475
O       5.50807      9.44654      4.44529         0.511880     -0.178637      0.417189
O       5.50217      9.47606      8.55583         0.246636     -0.630927      0.774095
O       9.40373      1.86007      0.38207        -0.082951     -0.046965     -0.544001
O       9.24055      1.76784     12.72802         0.225077      0.458626     -0.477764
O       9.37614     12.96200      0.36376        -0.226971      0.573589      0.290409
O       9.31851     13.19856     12.62815         0.225241     -0.656029      0.464826
O       9.30792      1.81702      4.44469         0.171453      0.423517      0.226447
O       9.23224     13.10756      4.46617         0.151638     -0.308488      0.911247
O       9.42391      1.85125      8.56170         0.080471     -0.040003      0.093776
O       9.14469     13.03506      8.59711         0.809033      0.305361      0.721558
O       9.25640      5.64160      0.45300         0.595974     -0.219471     -0.627021
O       9.33441      5.69407     12.58598         0.269935     -0.297129      0.700543
O       9.32749      5.63545      4.50641         0.413853     -0.413155     -0.827349
O       9.29686      5.54338      8.52824        -0.047471      0.283690      1.676148
O       9.21536      9.34644      0.45029         0.698533      0.086920     -0.652022
O       9.30551      9.35186     12.66108         0.026412     -0.147966      0.468092
O       9.43025      9.24804      4.46027        -0.162987      0.550186     -0.920236
O       9.46881      9.30372      8.44646        -0.230967      0.488689      1.492785
O       3.76068      1.85881      2.43247        -0.256604      0.595998     -0.247742
O       3.69173      2.00528     14.79777         0.419845     -0.815233     -0.463695
O       3.80819     13.06347      2.40233        -0.009537      0.049703     -0.234486
O       3.66184     13.02434     14.85540         1.817660      0.157890     -0.265372
O      14.99023      1.82258      2.53583         0.058876     -0.722992     -0.573013
O      14.97714      1.80990     14.72532         0.027476      0.082381      0.270133
O      14.99397     13.14991      2.40995        -0.176146      0.052613      0.086496
O       0.02460     13.03939     14.82257        -1.185611      0.866317     -0.101509
O       3.67961      1.68972      6.50073         1.571269      0.054325     -0.060233
O       3.68606     13.20604      6.63594         0.238881      0.251998     -0.472382
O      14.95832      2.09215      6.49589         0.836939     -0.863208     -0.106720
O      14.95816     12.87096      6.59789         0.047643      0.698612     -1.130608
O       3.73987      1.83343     10.90637         0.319633      0.536669     -1.167241
O       3.74690     13.00058     10.57415        -0.046209      0.233645      0.161135
O      14.93503      1.74433     10.56069         1.622014     -0.233995      0.198053
O       0.00756     13.21964     10.80173        -0.458989     -0.855983     -0.396428
O       3.72394      5.48962      2.63538         0.471149      0.020380     -0.752196
O       3.79441      5.38129     14.78275        -1.580677      0.993983     -0.324014
O       0.04716      5.67636      2.43371        -0.412532      0.172617      0.083032
O      14.99329      5.67240     14.74669         0.633594      0.030133      0.122984
O       3.72537      5.87771      6.57500         0.887590     -0.977374     -0.135917
O      14.99177      5.39301      6.55451        -0.339626      0.819632     -0.100608
O       3.71478      5.54281     10.54661         0.483274     -0.049606      0.374388
O      14.97814      5.73014     10.58755         0.669806      0.198713      0.316232
O       3.77648      9.35867      2.55271        -0.244280      0.900573     -0.756710
O       3.79407      9.41957     14.84653        -1.680604      0.308886     -0.563298
O       0.04498      9.35500      2.48077         0.243149     -0.139051     -0.291545
O      14.93720      9.21348     14.71410         0.964866      0.436300      0.292991
O       3.75037      9.15816      6.63293        -0.867130     -0.219268     -0.289564
O      14.97908      9.45990      6.54575        -0.463776      0.043956     -0.000502
O       3.75550      9.37423     10.84389        -0.605661      0.106585     -0.482524
O      14.99412      9.30843     10.63917        -0.929446      0.214797      0.195272
O       7.50807      1.75465      2.42277        -0.345770     -0.009864     -0.288945
O       7.48351      1.79041     14.86560        -0.337753     -0.377188     -0.169312
O       7.47262     13.18773      2.52492        -0.292024     -0.352743     -0.266433
O       7.45664     13.19749     14.78791         0.661618     -0.119892     -0.221806
O       7.46299      2.02252      6.61938         0.939024      0.379239     -0.326147
O       7.42866     12.85022      6.63090        -0.269568      0.592133     -0.741783
O       7.41536      1.80002     10.66044         2.235905     -0.011586     -0.436274
O       7.47540     13.10414     10.82080         0.199648      0.564941     -0.422569
O       7.48579      5.74262      2.52499        -0.164806     -0.208831      0.156404
O       7.47751      5.62854     14.82899        -0.204960      0.084496     -0.445201
O       7.51712      5.46359      6.54025        -0.459321     -0.134995     -0.103028
O       7.41906      5.56855     10.83758         1.124209      0.435709     -0.855088
O       7.49630      9.14193      2.50372        -0.866220      0.818444      0.030139
O       7.47650      9.33162     14.86951        -0.529391     -0.300811     -1.018183
O       7.48425      9.53725      6.43282        -0.635411     -0.240412      0.377607
O       7.46405      9.22148     10.50938         0.571883     -0.063089      0.434271
O      11.24196      1.88370      2.49407         0.140200      0.175957     -0.053161
O      11.20994      1.98150     14.73195         0.520325     -0.252042     -0.004798
O      11.11326     13.00979      2.56266         1.935635     -0.075581     -0.472670
O      11.19414     13.00746     14.74342         0.770061      0.313385     -0.202244
O      11.23887      1.52582      6.48683        -0.286397      0.943463     -0.045451
O      11.16415     13.27876      6.51066         0.465915     -0.455269      0.387185
O      11.30904      1.86624     10.82427        -1.943961      0.532760     -0.525591
O      11.25951     13.05369     10.70240        -0.566613     -0.343341     -0.094028
O      11.28442      5.50987      2.58445         0.233651      0.352014     -0.683784
O      11.23411      5.50709     14.85613        -0.684766      0.104800     -0.430234
O      11.22890      5.86201      6.61309         0.852388     -0.899511     -0.653107
O      11.25697      5.47111     10.68791        -0.251296      0.410875     -0.346858
O      11.28934      9.42107      2.35935         0.312808     -0.066914      0.379917
O      11.22959      9.29473     14.68209        -0.984345      0.488934      0.211517
O      11.22077      9.26916      6.44795         1.060071     -0.189859      0.330231
O      11.19286      9.45270     10.69624         0.760047     -0.171302     -0.025497
O       1.73310      3.70911      2.44766         0.629413      0.454117     -0.126541
O       1.79518      3.80638     14.86643        -0.277778     -1.567623     -0.425096
O       1.98601      0.00903      2.42936        -0.422512     -0.697309      0.050757
O       1.91981     14.92002     14.73442        -0.259932      2.031735      0.166155
O      13.28309      3.76182      2.45507        -0.840075     -0.704420     -0.060459
O      13.14620      3.70705     14.81411         0.193254      0.683821      0.007030
O      13.06096     14.92338      2.64449        -0.156654      0.634649     -1.034184
O      13.06051      0.02575     14.85101         0.135421     -0.129071     -0.576108
O       2.00991      3.77467      6.58036         0.152722     -1.005733     -0.069723
O       1.65886     14.94445      6.41003        -0.261615      0.957547      0.425608
O      12.90460      3.74713      6.55924        -0.156387     -0.395907     -0.264158
O      13.26917     14.94335      6.59259         0.220416     -0.080278     -0.075289
O       1.77088      3.69154     10.51704        -0.057400      0.491063      0.423748
O       1.88525      0.01763     10.69468         0.306059     -1.281613     -0.143271
O      13.38650      3.73806     10.52638        -1.250929      0.792786      0.184956
O      13.07957     14.98959     10.70301        -0.206040     -0.429782     -0.290005
O       2.03707      7.46815      2.52174        -0.718001      0.257099     -0.440780
O       1.99436      7.48576     14.87273        -0.938627     -0.350783     -1.229460
O      13.17855      7.51360      2.44702        -0.476035     -0.250861     -0.128137
O      13.05525      7.46046     14.71108        -0.127085      0.404074      0.008574
O       1.66444      7.48026      6.63210         0.168228      0.086839     -0.350064
O      13.23251      7.51237      6.57534        -0.082395     -0.655537     -0.620338
O       1.90342      7.45516     10.76905         0.141310      0.378076     -0.248767
O      13.01801      7.52459     10.80458        -0.027597      0.422418     -0.712290
O       1.90027     11.23785      2.43118        -0.254127      0.118831      0.022398
O       1.69899     11.23482     14.85593         0.852689     -0.444655     -0.411019
O      13.20354     11.24303      2.57023        -0.593487     -0.088128     -0.917592
O      13.15405     11.27743     14.76066        -0.246063     -0.952392      0.129044
O       1.89990     11.18317      6.56717         0.532765      0.732284      0.051276
O      12.93734     11.21652      6.61249         0.472283     -0.303623     -0.525971
O       1.83357     11.22392     10.69461        -0.287055      0.220976      0.051241
O      13.13835     11.24342     10.65040         0.079771     -0.328845      0.202274
O       5.79062      3.71356      2.42024        -0.528419      0.016547      0.113757
O       5.61190      3.68400     14.79907         0.747300     -0.014909      0.017922
O       5.56024     14.98185      2.51728         0.208097      0.013265     -0.794365
O       5.45765     14.97466     14.78708         0.086864      0.556703     -0.190633
O       5.52004      3.74172      6.51397        -0.412733      0.887652      0.219536
O       5.87388      0.04693      6.44220        -0.718771     -1.710426      0.183088
O       5.58359      3.72385     10.68175         0.084815      0.075204     -0.467238
O       5.51512     14.96876     10.63689         0.308161      0.499941      0.014254
O       5.39890      7.50603      2.52568         1.035111     -0.156752     -0.713696
O       5.42672      7.45838     14.65960         0.670397     -0.043048     -0.114963
O       5.74033      7.45893      6.59827         0.037374      1.028842     -0.308121
O       5.45625      7.48238     10.75482         0.624493     -0.097165     -0.248069
O       5.70888     11.23725      2.27714         0.053164      0.869219      0.605913
O       5.53744     11.24225     14.70052         0.723369      0.182146      0.065259
O       5.32971     11.19098      6.54575         0.699907      1.098535     -0.341322
O       5.70383     11.24041     10.69987        -0.154927     -0.142528      0.047621
O       9.23055      3.74955      2.40004         0.353779     -0.835410      0.496812
O       9.23184      3.75562     14.64174         0.248312     -0.062700      0.423201
O       9.37204     14.91359      2.46473         0.145788      1.287808     -0.447150
O       9.43854     14.95845     14.72727        -0.178660      0.747723      0.687522
O       9.60940      3.67745      6.59454        -0.371265      0.602419     -0.562141
O       9.14600      0.02333      6.51891        -0.217665     -1.666801      0.389301
O       9.34098      3.71656     10.62439        -0.265643     -0.118394      0.480311
O       9.42919     14.98395     10.69317        -0.391893      0.329984     -0.444284
O       9.34973      7.45897      2.57496         1.031310      0.499979     -0.179185
O       9.37939      7.42876     14.84665        -0.009417      1.162018     -0.440753
O       9.23890      7.47997      6.58680        -0.124359      0.006163     -0.416092
O       9.34654      7.47861     10.69541         0.442342      0.875220     -0.268284
O       9.18933     11.17495      2.57612         0.190975      0.741522     -0.187867
O       9.26490     11.21497     14.78616         0.264309      0.198057     -0.465167
O       9.44189     11.21552      6.55904         0.393494      0.577871     -0.127606
O       9.18588     11.20756     10.75055         0.683256     -0.386324     -0.394222
