  # total energy = -7879.33016720 
CRSYTAL
PRIMVEC
    15.6000000000000000    0.0000000000000000    0.0000000000000000
     0.0000000000000000   15.6000000000000000    0.0000000000000000
     0.0000000000000000    0.0000000000000000    17.640000000000000
PRESSURE
-4.32338 -4.45384 -3.40131 -0.128334 0.115395 -0.024032
PRIMCOORD
320 1
Pb       3.83911      3.92451      4.28113         0.398001     -0.222159      0.421304
Pb       3.79176      3.75787     17.55542         0.288449     -0.123090     -0.304648
Pb       4.08978      0.09258      4.34652        -0.474779     -0.000560      0.177642
Pb       3.97742     15.48674     17.46598        -0.480920      0.312563      0.791041
Pb       0.00961      3.88761      4.31582        -0.333419     -0.259163      0.360708
Pb      15.49599      3.86313     17.60490         0.138440     -0.510712     -0.136203
Pb      15.58036     15.55478      4.34625        -0.072475      0.675162      0.080203
Pb       0.20696     15.49808     17.48997        -0.957883      0.063888      1.268354
Pb       3.95866      3.79838      8.70691        -0.020449     -0.026139     -0.283786
Pb       3.85622     15.54939      8.74907         0.616753      0.336608      0.094263
Pb      15.58369      3.81198      8.66811         0.017055      0.260822      0.315787
Pb       0.04367     15.46246      8.95722         0.099911      0.373032     -0.617667
Pb       3.73617      4.08338     13.11255         0.314085     -0.714172      0.677320
Pb       3.78247     15.56344     13.14428         0.576992      0.137885      0.748603
Pb      15.47689      3.83415     13.16444         0.058843      0.228330     -0.229019
Pb       0.01480     15.59972     13.10156        -0.265160     -0.440708      0.561711
Pb       3.80466      7.74406      4.24562         0.348980      0.210196      0.442046
Pb       3.71558      7.75748     17.57634         0.486572      0.148336      0.422698
Pb      15.46463      7.77940      4.43297         0.433203      0.092772      0.061553
Pb      15.47952      7.75085      0.03410         0.035604     -0.110617     -0.202267
Pb       3.90281      7.76735      8.71925         0.127945     -0.347435      0.354676
Pb       0.04023      7.70281      8.73338        -0.636909      0.255124     -0.386906
Pb       3.87767      7.78099     13.17847        -0.483619      0.358372      0.148272
Pb      15.36319      7.83480     13.18467         1.684224      0.154482      0.238265
Pb       3.89184     11.70162      4.29849        -0.351226      0.169186      0.350807
Pb       3.93025     11.63255     17.58443        -0.461608      0.343440      0.020767
Pb      15.53836     11.63001      4.43090         0.456134      0.005690     -0.076813
Pb      15.55809     11.60354      0.12989         0.049710      0.510852     -0.528747
Pb       3.88633     11.66175      8.66400        -0.093619      0.082331      0.348185
Pb      15.58199     11.64940      8.80447         0.046155     -0.230326     -0.388308
Pb       3.90668     11.70468     13.20321        -0.275853     -0.379638      0.238664
Pb       0.06759     11.61629     13.17124         0.064683     -0.218151      0.334950
Pb       7.81765      4.08045      4.29565        -0.602008     -0.976794      0.421010
Pb       7.75545      3.80138     17.47857         0.227382      0.114407      0.211410
Pb       7.94709      0.03102      4.28118        -0.379716      0.423582      0.498501
Pb       7.90544     15.46482     17.60149        -0.335502      0.689817      0.024619
Pb       7.94145      3.88495      8.71016        -0.378195     -0.571404      0.058858
Pb       7.73747     15.49231      8.68352        -0.070424     -0.028099      0.821924
Pb       7.65561      3.89965     13.01638         0.288777     -0.403972      0.907893
Pb       7.68367     15.44126     13.21402         0.076918      0.209265      0.109524
Pb       7.67993      7.90950      4.30793        -0.155723      0.405703      0.406096
Pb       7.82372      7.81236     17.57856        -0.452629     -0.011001      0.433188
Pb       7.83213      7.77245      8.75918        -0.115245      0.313903      0.433432
Pb       7.72968      7.67740     13.10856        -0.212315      0.742280      0.460140
Pb       7.75089     11.81688      4.34356         0.503942     -0.379286     -0.180147
Pb       7.73907     11.72662      0.05530         0.081757     -0.132206     -0.449953
Pb       7.69427     11.66109      8.89078         0.268845      0.173518     -0.112351
Pb       7.85065     11.54378     13.21161        -0.551118      0.086089      0.365871
Pb      11.54216      4.03066      4.36325         0.358566     -1.153236      0.040630
Pb      11.71940      4.00923     17.48668        -0.106940     -0.784881      0.709705
Pb      11.75414      0.04064      4.37918         0.129526      1.221990      0.253175
Pb      11.69487      0.00588     17.53501         0.585358      0.196341      0.418588
Pb      11.69187      3.89739      8.77688        -0.002834      0.106830      0.192383
Pb      11.64418     15.54711      8.82844         0.087743     -0.041383      0.280144
Pb      11.54596      3.92007     13.20316         0.340002     -0.250461     -0.042860
Pb      11.72532     15.51474     13.17566         0.153592     -0.179716      0.243275
Pb      11.62708      7.81136      4.33575         0.258697      0.410118      1.194443
Pb      11.64669      7.88661     17.60616         0.124572     -0.280342      0.062348
Pb      11.76235      7.73680      8.77211        -0.009246      0.248779      0.006472
Pb      11.67692      7.82797     13.20038        -0.672495      0.161050     -0.376893
Pb      11.74924     11.94578      4.46333        -0.045740     -1.078341     -0.097421
Pb      11.69988     11.79151      0.01690         0.130877     -0.164325     -0.156109
Pb      11.65421     11.68065      8.69844        -0.050257     -0.454794      0.419893
Pb      11.79689     11.71947     13.09547        -0.026394     -0.385606      0.761577
Ti       1.96969      1.88821      2.35742        -0.543091     -0.232961     -0.951276
Ti       1.94053      1.94317     15.58412         0.036497     -0.136433      1.065813
Ti       1.98877     13.66606      2.55061         0.357725     -0.042908     -1.682708
Ti       1.91921     13.57443     15.49198         0.252192      0.254530     -0.986121
Ti      13.66855      2.03312      2.37057        -0.449086     -0.703365     -0.830900
Ti      13.70164      1.86437     15.50664        -0.705820     -0.590151      1.372935
Ti      13.70401     13.67599      2.44589         1.036299      0.583976     -2.332494
Ti      13.65571     13.57486     15.73036         0.203076     -0.081054     -0.706934
Ti       1.93589      1.82016      6.76584         0.814563      1.340085     -1.103529
Ti       1.94294     13.65018      6.71162         0.651740     -1.206350     -1.022550
Ti      13.67219      1.88060      6.97769         0.176334     -0.022068     -2.351033
Ti      13.69558     13.67826      6.81936        -0.236350     -0.450952     -0.247024
Ti       1.88694      1.97369     11.22939         1.040066     -0.597586      0.327762
Ti       2.01644     13.63539     11.21718        -0.125046     -1.134157      0.290067
Ti      13.54470      1.86075     11.21648         0.004683      0.915928     -0.372133
Ti      13.75232     13.52486     11.13897        -0.961000     -0.044476      1.760417
Ti       1.81200      5.79354      2.35949         0.369705      0.902958      0.668677
Ti       1.81179      5.93585     15.67446         0.712115     -1.628616     -0.740310
Ti      13.45808      5.91790      2.44662         1.163988     -1.301534      0.169972
Ti      13.62493      5.80134     15.50959        -0.032838      0.089492     -0.179953
Ti       1.89086      5.78612      6.77705         0.435917     -0.241003      0.179819
Ti      13.60305      5.78212      6.63313         0.486160      0.548721      0.110728
Ti       1.84048      5.89838     11.06600        -0.291429      0.289352      2.007856
Ti      13.56860      5.78365     11.27456        -0.191301     -0.414554     -0.273295
Ti       1.83893      9.75845      2.43603         0.306860     -0.156761     -1.052447
Ti       1.90182      9.80696     15.71080         0.360007      0.047588     -1.374108
Ti      13.56270      9.74157      2.44479         0.496472      0.493380      0.164518
Ti      13.67028      9.70261     15.56727         0.749137      0.918866      0.039396
Ti       1.92001      9.71400      6.78749        -0.686326      0.213338     -0.928776
Ti      13.59213      9.71885      6.76108        -0.326685      0.061603     -0.471492
Ti       1.94681      9.68197     11.06845        -0.820692      0.465402      2.640065
Ti      13.61430      9.66658     11.19858        -0.053860      0.465481      0.011608
Ti       5.90295      1.97124      2.30610         0.212833     -0.538304     -0.266647
Ti       5.96356      1.87996     15.55138        -0.696067     -0.122166      0.136167
Ti       5.90966     13.68914      2.47826        -0.396825      0.556612      1.421189
Ti       5.83597     13.64491     15.49233        -0.317270     -0.930532     -0.911614
Ti       5.92817      1.87384      6.74355        -0.342162      0.835721     -0.197441
Ti       5.82270     13.55429      6.67775         0.595746      0.914076      1.002074
Ti       5.82853      1.78656     11.18440        -0.710963     -0.069406     -0.349805
Ti       5.84349     13.50719     11.23929         0.706326     -0.049370     -0.470389
Ti       5.83278      5.90513      2.29162        -0.280110     -0.226250     -0.440570
Ti       5.84312      5.85601     15.67024        -0.148813     -0.704826     -0.284774
Ti       5.87220      5.89863      6.86993        -0.465253     -1.115841     -1.274558
Ti       5.70245      5.78848     11.19647         0.252992      0.611161     -0.027973
Ti       5.75391      9.81738      2.32335         0.651429     -0.685976      0.025108
Ti       5.83924      9.68012     15.73247        -0.502491      0.903010     -0.491350
Ti       5.86458      9.75247      6.73329        -0.274519     -0.955756     -0.209985
Ti       5.69459      9.68385     11.16111         1.295546     -0.030902     -1.007643
Ti       9.78422      1.94012      2.31159        -0.056315      0.390047     -0.554462
Ti       9.89733      1.91607     15.52626        -1.274168     -0.080370     -0.177068
Ti       9.90409     13.69389      2.40658        -1.394764     -0.124293      1.202638
Ti       9.75743     13.64605     15.52671         0.415254     -0.443630      0.070827
Ti       9.81791      1.83429      6.88842        -0.623591      0.379807     -1.556591
Ti       9.74530     13.58001      6.76046        -0.676495      0.697596     -0.312373
Ti       9.67328      1.84588     11.31217         0.055911      0.809737     -1.271037
Ti       9.70109     13.61006     11.28951         0.350719     -0.709232      0.040841
Ti       9.62098      5.93800      2.37891         0.172130     -0.438816      0.622457
Ti       9.77288      5.86041     15.61026        -0.637712      0.275461      0.613196
Ti       9.77107      5.86639      6.71971        -0.045635     -0.178343     -0.150830
Ti       9.69312      5.92870     11.16662         1.161414     -0.861025      0.404392
Ti       9.81202      9.80611      2.46142        -0.555178      0.590774      0.118963
Ti       9.82469      9.79600     15.72800        -0.895173     -0.211312     -0.305537
Ti       9.62602      9.72841      6.75962         1.407897      0.553495     -0.928774
Ti       9.61433      9.78637     11.20456         0.933291     -0.739718     -1.186152
O       1.81488      1.86976      0.54038         0.556388      0.276075      1.351649
O       1.87672      1.92641     13.86910         0.017900     -0.166653     -1.201639
O       2.05882     13.65237      0.76607        -0.318908     -0.041204      0.887555
O       1.92780     13.58472     13.63684        -0.006812     -0.001394      1.750645
O      13.54212      2.01377      0.60618         0.231541      0.199296      0.759983
O      13.66683      1.82833     13.77864         0.290599      0.322296     -0.593644
O      13.74484     13.74922      0.61433        -0.433057     -0.548640      1.547032
O      13.61942     13.41620     13.98438         0.198511      0.466754      0.309192
O       2.01243      2.01807      4.98813        -0.345674     -0.263198      1.014688
O       1.96279     13.42444      4.92919        -0.222428      0.825690      1.210198
O      13.73678      1.80451      5.17050        -0.192624     -0.091108      1.700194
O      13.65802     13.72102      5.00057         0.250722     -0.119525      1.033763
O       1.95567      1.78950      9.51678        -0.094395      0.174824     -0.535588
O       2.08665     13.58085      9.42730        -0.333777      0.052780      0.734797
O      13.56388      1.98663      9.42346         0.129523     -0.290361      0.572332
O      13.74784     13.51847      9.42750        -0.000273      0.260206     -0.531972
O       1.70196      5.90029      0.61831         0.168222     -0.285191      0.108612
O       1.90249      5.85513     13.89996         0.060978      0.074610      0.622913
O      13.56847      5.86611      0.67824        -0.047390      0.296143      0.619903
O      13.61038      5.64039     13.70915         0.177355      0.767233      1.360585
O       1.91916      5.77744      5.03449         0.234377     -0.019608     -0.153157
O      13.57333      5.82930      4.85509         0.046653     -0.016601      0.809429
O       1.85171      5.85136      9.37189        -0.069383      0.056230     -1.010343
O      13.41973      5.85713      9.53941         0.351350     -0.075928     -0.176101
O       1.88749      9.80147      0.58344        -0.248515     -0.221075      1.379516
O       1.96300      9.72025     13.95030         0.025597     -0.008544      0.623590
O      13.64258      9.66477      0.70411        -0.045711     -0.291656     -0.418679
O      13.81055      9.76877     13.79384        -0.625471     -0.413087      0.537291
O       1.76333      9.76537      5.00627         0.514442     -0.159049      1.074213
O      13.60168      9.85717      4.97968         0.105755     -0.186074      0.849740
O       1.77496      9.83394      9.38153         0.248100     -0.290219     -1.803518
O      13.67095      9.61653      9.46331        -0.017084      0.058240     -0.424457
O       5.83236      1.76402      0.53309         0.547558      0.412006      0.734760
O       5.85417      1.76496     13.81306         0.336278      0.455667      0.699697
O       5.84507     13.91552      0.81726        -0.030687     -0.546704     -2.399545
O       5.97428     13.49106     13.66734        -0.695297      0.305558      1.916674
O       5.89301      2.03621      4.96794        -0.027670     -0.485390      1.365192
O       5.87798     13.63652      4.94550         0.058943     -0.203647     -0.007709
O       5.82002      1.73676      9.39966        -0.075295      0.455350      1.043885
O       6.00138     13.37704      9.44215        -0.527462      0.579199      1.101325
O       5.88571      5.88704      0.53987        -0.021415     -0.044240      0.521831
O       5.79621      5.78388     13.86473        -0.243701      0.269905      1.182248
O       5.92952      5.85761      5.10502        -0.310883      0.202393      0.612788
O       5.56858      5.89515      9.47152         0.944381     -0.381672     -0.195371
O       5.81291      9.80245      0.53286        -0.302874      0.138643      1.079588
O       5.68707      9.81230     13.98081         0.556167     -0.301024      0.285835
O       5.87691      9.57068      4.94031        -0.224371      0.772435      1.938816
O       5.89391      9.59534      9.38499        -0.353304      0.427270      0.691498
O       9.78712      1.78556      0.53288        -0.090398      0.645365      0.990392
O       9.81572      1.87691     13.74797         0.083710     -0.025077      0.765372
O       9.81037     13.52225      0.70597         0.013685      0.554225     -0.452730
O       9.83493     13.54379     13.75303        -0.366166      0.218865      1.169130
O       9.85123      1.76806      5.11925        -0.098055      0.228087      0.655327
O       9.67001     13.84003      4.96446         0.739243     -0.872408      1.714010
O       9.58952      1.94887      9.49442         0.676798     -0.160829      1.368380
O       9.72922     13.50440      9.53627        -0.008620      0.128299      0.037371
O       9.51851      5.94905      0.65890         0.439272      0.022732     -0.166439
O       9.88120      5.94504     13.89197        -0.292323      0.054523     -0.344243
O       9.75717      5.85590      4.92453        -0.028395      0.044060      1.568281
O       9.87914      5.80903      9.41485        -0.625681      0.130335      0.295245
O       9.80430      9.92295      0.68957         0.065811     -0.412393      0.593908
O       9.81798      9.61958     13.99194        -0.115222      0.478487      0.364282
O       9.75225      9.88161      4.97140        -0.467457     -0.649726      1.439749
O       9.74264      9.71664      9.42419        -0.514762      0.097655      0.636697
O       3.97004      1.91259      2.70124        -0.328437      0.618648      0.175597
O       3.88902      1.84878     16.02996        -0.507827      0.649163     -0.438619
O       3.88276     13.75419      2.94447         0.186837     -0.804481     -0.021930
O       3.82310     13.73469     15.89378         0.611338     -0.661526     -0.172355
O       0.03590      2.05637      2.74894         0.014375     -0.059785      0.116262
O      15.49057      1.89455     16.05975         0.444990      0.235759     -0.491261
O       0.06159     13.66881      2.84788        -0.928037     -0.249490      0.193885
O       0.05374     13.53026     16.16391        -0.575239     -0.206396     -0.668890
O       3.86216      1.90007      7.14663         0.439859      0.250373      0.324659
O       3.98848     13.44879      7.11036        -0.681968      0.428953      0.027403
O       0.06522      1.73975      7.32132        -0.594129      0.361335      0.144288
O       0.12586     13.64338      7.20130        -1.038890      0.204250      0.027939
O       3.91343      1.76372     11.69680        -0.261518      0.450090     -0.586252
O       3.95917     13.67539     11.66795        -0.476976     -0.442047     -0.596349
O      15.58862      1.89280     11.64116        -0.173030      0.051748     -0.273901
O      15.57412     13.58287     11.63587         0.428164      0.279360     -0.683440
O       3.91319      5.86715      2.81354         0.043870     -0.379800     -0.588087
O       3.76603      5.76486     16.32604         0.113725      0.173034     -1.332596
O      15.59487      5.97195      2.91655        -0.247244     -0.698252     -0.675984
O      15.51822      5.82959     16.16400        -0.731144     -0.054903     -0.751466
O       3.86985      5.72487      7.30816         0.267032      0.359648     -0.660413
O      15.51846      5.84708      7.17512         0.196410      0.046410     -0.030287
O       3.85044      5.95275     11.58180        -0.780879     -0.536398      0.265444
O      15.52346      5.80281     11.51642         0.577595     -0.257847      0.044779
O       3.84470      9.79212      2.86614         0.278524     -0.199913     -0.592371
O       3.89174      9.72581     16.06226        -0.296553     -0.100085      0.599452
O      15.50543      9.77177      2.87253         0.488152     -0.389130     -0.245702
O       0.00391      9.97849     15.98711        -0.639425     -1.178419      0.441388
O       3.83791      9.63763      7.30282         0.655193      0.702726     -1.092797
O      15.48810      9.69799      7.17283         0.830034      0.079545      0.245101
O       3.84878      9.54382     11.51952        -0.275911      0.841395      0.008757
O       0.05469      9.74331     11.61515        -0.657851     -0.522940     -0.051172
O       7.82196      1.88370      2.82599         0.205611      0.154442     -0.618144
O       7.94441      1.90545     15.95856        -1.228810      0.014869     -0.070889
O       7.85836     13.64860      2.81553         0.474736      0.139458     -0.193729
O       7.68635     13.66068     16.03329         1.162257     -0.068433     -0.258487
O       7.86327      1.70853      7.24041        -0.908981      0.933142     -0.429347
O       7.80965     13.58246      7.22218         0.439536      0.275068     -0.541645
O       7.73817      1.87644     11.66000         0.486115      0.600778     -0.097375
O       7.76649     13.44653     11.83836         0.839757      0.195490     -1.156305
O       7.75211      6.04752      2.92017         0.297171     -0.540636     -0.847974
O       7.79432      5.85311     16.00108        -0.551973     -0.006663     -0.169934
O       7.83905      5.77357      7.20393         0.518367      0.555428      0.047402
O       7.72100      5.83308     11.69606         0.291853     -0.158687     -1.011883
O       7.69974      9.76961      2.82832         0.904686      0.340965     -0.470510
O       7.77095      9.85143     16.23351         0.109924     -0.168973     -0.743042
O       7.74128      9.58555      7.28472         0.386410      0.373698     -0.845627
O       7.70333      9.73240     11.65277         0.687128      0.004690     -0.087144
O      11.66716      1.97100      2.80981         0.357995      0.185433      0.054962
O      11.71479      1.87471     16.00450         0.160010      0.424053     -0.276114
O      11.83836     13.88389      2.84047        -1.040042     -1.103815     -0.276123
O      11.64322     13.63254     16.05922         0.209501     -0.178620     -0.047121
O      11.69453      1.92124      7.32121         0.891503     -0.402611      0.172844
O      11.76927     13.53300      7.16322        -1.170353      0.646609     -0.144982
O      11.67487      1.91537     11.73466        -0.186218     -0.635808     -0.751531
O      11.68286     13.56512     11.76281         0.621953      0.390856     -1.111335
O      11.58169      5.83354      2.88615         0.454365      0.297927     -0.909080
O      11.66759      5.96352     16.12578         0.425259      0.101364     -0.540507
O      11.78159      5.76858      7.17123        -1.557206     -0.172518     -0.246306
O      11.57086      5.82470     11.61501         0.475447      0.587760      0.361311
O      11.70508      9.80429      2.90363        -0.446696     -0.131541     -0.305813
O      11.77458      9.65369     16.10271        -0.866766      0.287046     -0.301700
O      11.67916      9.84273      7.14650        -0.099936     -0.330389      0.172292
O      11.68285      9.69887     11.53237         0.506088     -0.447018      0.400505
O       1.95515      3.91216      2.89652         0.035751      0.146285     -1.015956
O       1.73365      3.82948     15.96332         0.712665      0.056737      0.402117
O       1.96291      0.07205      2.88640        -0.147948     -0.272522     -0.186337
O       1.82804     15.48276     15.95491         0.501930      0.765832     -0.651522
O      13.61040      3.90044      2.88100         0.014279      0.752058     -0.324224
O      13.49979      3.92297     16.02080         0.651831      0.068780     -0.508544
O      13.79812      0.08488      2.84404        -0.355876     -0.371164     -0.011497
O      13.56684     15.53970     15.92784         0.390209      0.183687     -0.047818
O       1.83371      3.86576      7.26207         0.245955     -0.458142     -0.205163
O       2.07890     15.54494      7.20861        -0.315930     -0.737331     -0.371682
O      13.71285      3.87442      7.10039        -0.047055     -0.588870      0.462405
O      13.69939     15.51968      7.52601        -0.371001     -0.154416     -0.806364
O       1.99554      3.84003     11.55280        -0.281832      0.857253     -0.216800
O       1.95758     15.49009     11.64918        -0.507411      0.468665     -0.357902
O      13.57124      3.81263     11.69059         0.156852      0.188411     -0.345512
O      13.62582     15.56629     11.62847         0.130790     -0.592912     -0.461250
O       1.98120      7.80960      2.83080        -0.550963     -0.023208     -0.387745
O       1.83303      7.75507     16.07993        -0.006199      0.926931      0.192536
O      13.60199      7.77617      2.93297        -0.339222      0.201831     -0.618606
O      13.67815      7.74586     15.88898         0.212457      0.329363      0.131135
O       1.96260      7.70464      7.15485        -0.473393      0.794888      0.169723
O      13.54464      7.73024      7.12871         0.291178      0.596559     -0.145157
O       1.87233      7.80363     11.59624        -0.061137     -0.947677     -0.564379
O      13.65040      7.72962     11.73763        -0.535808      0.234161     -0.585411
O       1.91800     11.61626      2.88034         0.007223      0.466828     -0.181567
O       2.01592     11.72434     15.99795         0.187478     -0.081616      0.187755
O      13.57289     11.67968      2.68229         0.189028      1.138882      0.527274
O      13.58537     11.58938     16.12661        -0.142237      0.584340      0.178910
O       1.96444     11.67346      7.15981        -0.159696     -0.451489      0.199388
O      13.61708     11.78278      7.30757         0.891647     -0.624821     -0.587147
O       1.97672     11.60758     11.75368         0.465140      0.459821     -1.178114
O      13.75102     11.59888     11.60116        -0.612111      0.666641     -0.386189
O       6.06949      3.89683      2.60191        -0.649835      0.570602      0.133355
O       5.82418      3.83152     16.07365         0.031050      0.040978     -0.294728
O       5.86440     15.55562      2.89720         0.297677      1.273935      0.062865
O       5.75713     15.52039     15.93959         0.959046      0.522086     -0.225995
O       5.92960      3.84588      7.25021        -0.057823     -0.392916      0.152836
O       5.77307     15.53843      7.27182         0.185045     -0.424565     -0.920209
O       5.68929      3.86976     11.70006         0.456665      0.089509     -0.881445
O       5.99338     15.49658     11.61849        -0.479382     -0.103358     -0.369755
O       5.82880      7.84585      2.72315        -0.342299     -0.140331     -0.079207
O       5.74030      7.74396     16.03411         0.367121      0.069892     -0.115466
O       5.88268      7.77991      7.31549        -0.397835     -0.226853     -0.497822
O       5.78829      7.83508     11.62749         0.482706     -1.308975      0.410083
O       5.83739     11.75825      2.80002        -0.202771     -0.951080     -0.197998
O       5.76107     11.77107     16.15202         0.214041      0.096642     -0.361709
O       5.97996     11.63583      7.22295        -0.568484     -0.648877     -0.842575
O       5.83030     11.58864     11.56011        -0.572728      0.125437      0.252617
O       9.64726      3.94671      2.81664         0.234820      0.277948     -0.500412
O       9.80019      3.96550     16.01310         0.067544     -0.576571     -0.398006
O       9.81820      0.09906      2.79571        -0.178656     -1.430706     -0.204938
O       9.79717     15.56418     16.10777        -0.286527     -0.435108     -1.008233
O       9.73601      3.81863      7.18841         0.073714      0.846468      0.012443
O       9.83632     15.55185      7.36224         0.029982     -1.357507     -0.332757
O       9.84774      3.88452     11.72310        -1.560211     -0.048300     -0.799704
O       9.65718     15.48085     11.64465         0.282843      0.781609     -0.152894
O       9.90605      7.88513      2.88877        -1.268634     -0.125756     -1.092301
O       9.61546      7.88086     16.15547         0.926516     -0.277515     -0.140208
O       9.81249      7.77928      7.24974        -0.216397     -0.585100     -0.690594
O       9.65745      7.84244     11.66567         0.142911     -0.900653     -0.216642
O       9.82821     11.79925      2.98015         0.227238     -0.034421     -0.570973
O       9.76695     11.78777     16.16967        -0.200522     -0.652522     -0.619780
O       9.64091     11.63459      7.18699         0.318205      0.666173     -0.252650
O       9.86399     11.58215     11.70688        -1.037067      0.554860     -0.172995
