  # total energy = -7865.07473950 
CRSYTAL
PRIMVEC
    15.010000000000000    0.0000000000000000    0.0000000000000000
     0.0000000000000000   15.010000000000000    0.0000000000000000
     0.0000000000000000    0.0000000000000000    16.400000000000000
PRESSURE
16.7006 17.0081 7.26015 0.024057 0.045073 -0.045876
PRIMCOORD
320 1
Pb       3.58246      3.64961      4.06402         0.758760      0.574409      0.395681
Pb       3.82125      3.69702     16.32957        -0.487532      0.421238      0.872215
Pb       3.80199     14.93749      4.15845        -0.674730      0.032368     -0.369443
Pb       3.73798      0.05081     16.35947        -0.243896     -0.387981      0.312361
Pb      14.99142      3.77418      4.21426        -0.317534     -0.404728      0.022420
Pb      14.97140      3.86993      0.06306        -0.188886     -0.778367      0.345136
Pb      14.98915     14.95980      4.19864         0.164151      0.244925     -0.875594
Pb      14.96854      0.03883     16.25721         0.351264     -0.289734      1.000259
Pb       3.86905      3.68074      8.17606        -0.487122      0.070937     -0.139946
Pb       3.86733     14.97328      8.35550        -0.480934     -0.037424     -0.262692
Pb       0.08835      3.67212      8.07849         0.023641      0.003971      0.249737
Pb       0.15385      0.02381      8.29927        -0.226427     -0.229310      0.253430
Pb       3.92780      3.76609     12.35826        -0.371547     -0.332492     -0.126034
Pb       3.77686      0.03971     12.28983         0.141837     -0.167105      0.040886
Pb      15.00783      3.72622     12.26017        -0.163709      0.067498      0.891585
Pb      14.92249     15.00962     12.26114        -0.127761     -0.568151     -0.214954
Pb       3.56949      7.67618      4.17013         0.652796     -0.949828     -0.547368
Pb       3.76786      7.52756     16.34900        -0.634790     -0.820962      1.063274
Pb      14.85438      7.49657      4.13239         0.314461      0.108912     -0.436303
Pb      14.97132      7.46908      0.02960         0.415206     -0.002800      0.212269
Pb       3.66855      7.50259      8.33940         0.171521     -0.026693     -0.375340
Pb      14.96815      7.45712      8.08337         0.404844     -0.226136      0.414251
Pb       3.80290      7.36180     12.39892        -0.263531      0.842890     -0.275560
Pb       0.11514      7.49209     12.27792        -0.271467      0.338929      0.300778
Pb       3.62164     11.24912      3.93432        -0.230144      0.286023      0.836892
Pb       3.68422     11.28759      0.09349        -0.165334      0.552393     -0.336391
Pb      14.80196     11.23722      4.21410         0.786280     -0.131955     -0.814493
Pb      14.97178     11.17762     16.37384        -0.245644      0.710410     -0.079090
Pb       3.57092     11.15257      8.25388         0.229191      0.582236     -0.156863
Pb      14.90293     11.15406      8.20581         0.880208      0.510527      0.133308
Pb       3.71569     11.16492     12.47212         0.130182     -0.173382     -0.449186
Pb      14.98811     11.18707     12.29761        -0.222319     -0.006565      0.535691
Pb       7.45087      3.77435      4.28255         0.551785     -0.142974     -0.947216
Pb       7.48302      3.78526      0.09009        -0.139491     -0.151075      0.261384
Pb       7.43422      0.06335      4.21259         1.073491     -0.298962     -0.494989
Pb       7.57359      0.03833      0.01816        -0.169696     -0.115258      0.153416
Pb       7.61149      3.83759      8.26098         0.115519     -0.393662     -0.097399
Pb       7.40626     14.77146      8.36210         0.444585      0.725220     -0.354037
Pb       7.59666      3.60717     12.38336        -0.131042      0.643786     -0.685624
Pb       7.50384      0.03345     12.29060         0.170929     -0.640293     -0.327128
Pb       7.38668      7.47673      4.18032        -0.159635      0.425431     -0.239397
Pb       7.47878      7.44970      0.11542        -0.332460     -0.047209     -0.255556
Pb       7.49850      7.53879      8.10979         0.081202     -0.218167      0.594101
Pb       7.58358      7.39054     12.33738        -1.172954      0.563827     -0.091149
Pb       7.15005     11.27974      4.14696         1.649299     -0.669468      0.348539
Pb       7.43507     11.26867      0.05944         0.070903      0.152191      0.161288
Pb       7.36871     11.10319      8.32542         0.884693      0.711092     -0.536111
Pb       7.52586     11.18870     12.52311        -0.320850     -0.079509     -0.898082
Pb      11.44499      3.69559      4.19880        -0.837373     -0.132247     -0.084900
Pb      11.26472      3.83810      0.04689         0.241697     -0.619055      0.328048
Pb      11.28405      0.02618      4.21314        -0.617866     -0.402481     -0.147229
Pb      11.28240      0.07424     16.34366        -0.149760     -0.302432      0.750407
Pb      11.38450      3.76132      8.23844        -0.315356     -0.639917      0.045445
Pb      11.34583     14.92389      8.22840         0.104444      0.167681      0.127289
Pb      11.33972      3.76291     12.31810        -0.357774     -0.622924     -0.644758
Pb      11.29305     14.87525     12.28034        -0.062929      0.288335     -0.330292
Pb      11.06224      7.43160      4.15189         0.426124      0.866297     -0.560088
Pb      11.22202      7.44728      0.05644         0.087807      0.485446     -0.199756
Pb      11.21278      7.53169      8.18098        -0.446717     -0.256892      0.305201
Pb      11.22473      7.47242     12.42675         0.936700      0.115217      0.202217
Pb      11.08178     11.35664      4.23634        -0.073072     -0.446379     -0.438932
Pb      11.09517     11.35325      0.04238         0.731447     -0.620638      0.234148
Pb      11.13893     11.20843      8.20304        -0.355697      0.140000     -0.057925
Pb      11.26421     11.20160     12.39858         0.128136      0.026885     -0.007994
Ti       1.87024      1.86969      2.09488        -1.516324     -1.022547     -0.647547
Ti       1.80810      1.88461     14.28057         1.315937     -0.231030      0.592945
Ti       1.79179     13.21110      2.09857        -0.061456     -0.665097     -0.609602
Ti       1.87396     13.17447     14.19755        -0.681647     -1.008118      0.766627
Ti      13.03575      1.85963      2.12771         1.919180      0.246353     -1.272579
Ti      13.11342      1.86381     14.39498         0.602939     -0.214295     -0.134027
Ti      13.06095     13.14612      2.09078         0.629879     -0.267033     -0.433425
Ti      13.10874     13.11082     14.48851         1.246670     -1.577674     -0.797520
Ti       1.97208      1.78405      6.14971        -0.047105      0.749715      1.578268
Ti       1.90864     13.11102      6.24766         0.000958     -0.271329      0.309592
Ti      13.17385      1.78266      6.23725         0.078016      0.161849      0.371068
Ti      13.21153     13.02195      6.18322        -1.314622      1.109294      0.046246
Ti       1.99491      1.95254     10.39129        -0.503274     -0.362030     -1.310011
Ti       1.87056     13.11141     10.32784        -0.551602      0.786376     -0.487925
Ti      13.22543      1.85447     10.28024        -1.372722     -0.637453     -1.015667
Ti      13.10915     12.98888     10.27344        -0.317595      2.201673      0.103530
Ti       1.82447      5.56120      2.05834         0.610582      1.599681     -0.728731
Ti       1.90571      5.53449     14.37294        -0.429795      0.902781      0.029575
Ti      13.06727      5.66142      2.20600        -0.083263     -0.355464     -0.685641
Ti      13.17203      5.55791     14.32745        -0.632295      1.004723     -0.573024
Ti       1.96755      5.61063      6.10523        -0.818030     -0.381254      0.559956
Ti      13.11286      5.67516      6.23244         1.895838     -1.704646     -0.608867
Ti       1.80321      5.59622     10.24273         1.055446     -0.085622      1.033852
Ti      13.12089      5.57293     10.27758         1.010312      0.943829     -0.449762
Ti       1.76987      9.42439      2.12210        -0.131801     -0.712753     -0.760720
Ti       1.85464      9.36439     14.49691        -0.123421     -0.055152     -0.977740
Ti      13.06827      9.41564      2.11580        -0.839258     -0.099221      0.030850
Ti      13.15545      9.26062     14.37132        -0.946560      1.101234     -0.503005
Ti       1.77273      9.33178      6.07872         0.004271      1.653812      0.274374
Ti      13.03884      9.31424      6.20278        -0.465970      1.605590     -1.709797
Ti       1.86221      9.39538     10.34708        -0.174141     -0.144278     -0.045588
Ti      13.07094      9.32319     10.19784        -0.189907     -0.506481      1.837268
Ti       5.59720      1.86885      2.14143         1.042954      0.205875     -0.740723
Ti       5.69384      1.89961     14.43089        -0.707464     -0.537647     -0.451055
Ti       5.61240     13.14260      2.15520        -0.343249      0.095972     -1.734035
Ti       5.60587     13.17517     14.36688        -0.476134     -0.096604      0.197752
Ti       5.71964      1.84812      6.16071         0.270662      0.134154      1.323651
Ti       5.57832     13.13068      6.19315         0.267159     -0.846198      0.788420
Ti       5.72270      1.87568     10.24987        -0.093923     -0.269255     -0.136579
Ti       5.55263     13.05640     10.35005         0.710749      1.016276     -0.010107
Ti       5.53207      5.60797      2.18537        -0.022127      0.039155     -0.833536
Ti       5.62905      5.61486     14.36965         0.641926      1.232976      0.386759
Ti       5.63986      5.60412      6.18080        -0.647657      0.853835     -0.319400
Ti       5.57205      5.57737     10.27073         1.560949      0.643550     -0.212959
Ti       5.55363      9.30161      2.06173        -0.084014     -0.431001      0.355784
Ti       5.57335      9.39143     14.44284         0.804603     -0.334278     -1.632411
Ti       5.49140      9.34721      6.26542         0.064659      0.336017     -1.125994
Ti       5.60480      9.39393     10.22087         0.247332     -1.025308      2.414296
Ti       9.36454      1.85685      2.13141        -0.011211      0.464553      0.000503
Ti       9.44094      1.85090     14.27649        -0.102676      0.656022     -0.093874
Ti       9.32002     13.16926      2.16366         1.197521     -0.197577      0.245653
Ti       9.35103     13.12756     14.35861        -0.089651     -0.164899     -0.713389
Ti       9.45705      1.80994      6.21365        -0.185689     -0.150414      0.139288
Ti       9.38037     13.13614      6.25402        -0.483523     -0.433299     -0.870044
Ti       9.41171      1.81366     10.14418         1.389231      0.724561      0.207816
Ti       9.34361     13.05195     10.29549        -0.141871     -0.094180      0.606415
Ti       9.30939      5.57637      2.11444        -0.199125     -0.115926      0.651159
Ti       9.35150      5.53832     14.40107         0.454952      0.519688      0.007570
Ti       9.38034      5.59058      6.19071         0.705865     -0.138013      0.019420
Ti       9.37349      5.63924     10.31609        -0.594990     -0.963853     -0.891498
Ti       9.31911      9.36936      2.09689         0.588788      1.317281     -0.084472
Ti       9.29256      9.28081     14.46646         0.892312      0.688371     -0.024678
Ti       9.29136      9.35879      6.14880        -0.653718      0.716841      0.034895
Ti       9.36279      9.27013     10.41456        -0.736575      2.144812     -1.200803
O       2.07823      1.89868      0.25289        -1.044354      0.078327      0.622208
O       1.86867      2.09371     12.47965         0.093573     -1.051836     -0.091835
O       1.89388     13.26766      0.29443        -0.077400     -0.533917     -0.505479
O       1.81422     13.10120     12.36942         0.122808      0.425387      1.483062
O      13.07845      1.95388      0.19045        -0.258715     -0.640010      0.750115
O      13.21276      1.83432     12.57398        -0.355342      0.407077     -0.569728
O      13.21352     13.14781      0.17612        -0.649323      0.316589      0.548940
O      13.11858     13.11735     12.63611        -0.003141     -0.301084     -0.825355
O       1.79477      1.84603      4.39512         0.316361     -0.238458     -1.170188
O       1.85917     13.20094      4.43855         0.119522     -0.054972     -0.165302
O      13.17553      1.86895      4.37387        -0.110554     -0.129256      0.240524
O      13.12754     12.96274      4.29047         0.242925      0.483915      0.813178
O       1.96677      1.94738      8.52284         0.038258     -0.027169     -0.016160
O       1.94381     12.99107      8.47900        -0.507640      0.743007      0.036352
O      13.16647      1.82849      8.38823         0.253166     -0.073445      0.178580
O      13.08864     13.16052      8.48447         0.002312     -0.360967     -1.009199
O       1.87826      5.59467      0.14734        -0.440927     -0.444447      1.115822
O       1.96323      5.59366     12.49495        -0.303138      0.097631      0.666128
O      12.96335      5.63859      0.29372         0.535090     -0.175153     -0.151558
O      13.18586      5.58876     12.45447        -0.058965      0.049107      0.707444
O       1.98716      5.53661      4.32129        -0.350724      0.337079     -0.921442
O      13.21551      5.63139      4.31389        -0.568637     -0.077838      0.343308
O       1.93581      5.53731      8.46672         0.125339      0.521537     -0.895081
O      13.24525      5.68661      8.40329        -0.163710     -0.267669      0.214171
O       1.82161      9.39345      0.18489         0.140261     -0.001125      0.768379
O       1.88878      9.42644     12.56166         0.155414     -0.139305     -0.018548
O      13.08112      9.28893      0.29871        -0.077405     -0.394424     -1.111704
O      13.12034      9.45334     12.51720        -0.249222     -0.705034      0.640018
O       1.78787      9.41133      4.21795         0.339062     -0.300318      0.913919
O      13.13594      9.45269      4.30653        -0.009713     -0.299093      0.848524
O       1.77743      9.42151      8.47643        -0.045753     -0.363227      0.531856
O      13.07576      9.24731      8.40543         0.369114      0.526354     -0.793292
O       5.55099      1.93452      0.23403         0.564713     -0.501081      0.175133
O       5.74106      1.94601     12.57485        -0.180803     -0.249475      0.236904
O       5.50803     13.19750      0.27896         0.556300     -0.237909      0.320958
O       5.64758     13.15888     12.53730        -0.182026      0.028197      0.078380
O       5.61849      1.89847      4.35474         0.699394      0.003627     -0.559098
O       5.54835     13.03549      4.31364         0.307491      0.207271      0.441844
O       5.64579      1.75160      8.42506         0.148626      0.687758     -0.261155
O       5.61499     13.15251      8.48078         0.004524      0.182976     -0.002128
O       5.69159      5.62704      0.23601         0.186298      0.306661      0.311829
O       5.68864      5.61654     12.53311        -0.443839     -0.287360     -0.353958
O       5.57113      5.58679      4.29404         0.323061     -0.120580      0.804002
O       5.59865      5.56304      8.43260        -0.048334      0.236961      0.166728
O       5.57836      9.32415      0.22804        -0.093598     -0.180452     -0.187935
O       5.70645      9.53759     12.53351        -0.866069     -0.225586      0.971195
O       5.55941      9.23457      4.34366        -0.018507      0.873987      0.487772
O       5.61978      9.38775      8.43147        -0.131191     -0.403995     -0.598958
O       9.44386      1.85880      0.25513        -0.083250     -0.227371     -0.025230
O       9.52875      1.89349     12.42188        -0.569842      0.266753      1.241749
O       9.33623     13.14015      0.26891         0.188811      0.425412     -0.518243
O       9.30686     13.17163     12.47923         0.121603     -0.285141      1.412479
O       9.44266      1.82519      4.37496        -0.199679      0.175580     -0.193648
O       9.33532     13.19649      4.36645        -0.005713     -0.504366      0.634315
O       9.44336      1.96066      8.30738         0.037020     -0.280234      1.236792
O       9.36440     13.02079      8.47735         0.188326      0.370626     -0.727486
O       9.33229      5.56964      0.27004        -0.020951      0.047801     -0.486196
O       9.26892      5.70464     12.58168         0.842040     -0.702160     -0.695442
O       9.36776      5.64653      4.35881        -0.000777      0.180138      0.091566
O       9.49717      5.66217      8.47514        -0.414670     -0.063220      0.015980
O       9.37321      9.46711      0.16659         0.041109     -0.237397      0.939647
O       9.20319      9.41177     12.55758         0.663808     -0.266927      0.596745
O       9.30264      9.35967      4.33282        -0.230657     -0.374937     -0.242841
O       9.31653      9.37681      8.50198         0.095066     -0.373872      0.499632
O       3.74841      1.82930      2.42911        -0.310161      0.865149      0.057901
O       3.75768      1.51648     14.51607         0.604776      0.693983     -0.088163
O       3.71986     12.95571      2.38704         0.404635     -0.012937     -0.032897
O       3.71829     13.46980     14.57880         0.443693     -0.423808     -0.327790
O      14.96472      1.63008      2.34657         0.786083     -0.192235     -0.272759
O       0.00520      2.10507     14.67837         0.231440     -0.043843      0.120211
O      14.97265     13.32038      2.31611        -1.072130      0.350051      0.409710
O       0.03986     12.79989     14.54435        -0.283777      0.599541      0.250849
O       3.89404      2.00262      6.28495        -1.439952      0.552049      0.469744
O       3.78069     12.95826      6.58640        -0.507593     -0.050309     -0.673691
O       0.11620      1.60482      6.51189        -1.160584      0.382671     -0.268890
O       0.00514     13.24229      6.56532         0.200302      0.278616     -0.260829
O       3.86587      2.21603     10.47325        -1.298674      0.352430      0.475445
O       3.71794     12.99412     10.60800         0.303810     -0.491479     -0.008932
O       0.02013      1.59324     10.48146         0.907634     -0.210858      0.235244
O      14.89014     13.40059     10.48430         1.945081      0.463812      0.240944
O       3.69758      5.38206      2.10745        -0.039535     -0.748306      0.672852
O       3.71267      5.92423     14.65106         0.984533     -0.363827     -0.457818
O      14.96227      5.84867      2.18489        -0.073310     -0.310497      0.337239
O       0.02151      5.35673     14.65213        -0.130869     -0.547792     -0.107544
O       3.80310      5.40687      6.31923         0.093152      0.219576      0.590629
O       0.07186      5.75028      6.31975        -0.504160      0.108972      0.430883
O       3.80436      5.22549     10.47932        -1.456008      0.333368      0.041276
O       0.04713      6.03939     10.44097        -0.929463     -0.340040      0.005311
O       3.66935      9.57697      2.29147         0.304265     -0.117519     -0.051619
O       3.74726      9.07298     14.62730        -0.131006      0.350713     -0.231564
O      14.95944      9.14047      2.29255         0.209836     -0.071114      0.053305
O       0.00712      9.61584     14.56573        -0.519144     -0.104985      0.213667
O       3.62814      9.40983      6.63112         0.175322      0.093673     -0.816500
O      14.93531      9.19865      6.25766         0.791343      0.177309      0.719882
O       3.76216      9.77398     10.48561        -0.770007     -0.415216     -0.027585
O      14.92412      9.20661     10.57687         1.090894     -0.321005     -0.366699
O       7.51751      1.68185      2.33819        -1.161914     -0.114401      0.040635
O       7.58876      2.28727     14.60875        -0.073368     -0.465120     -0.028927
O       7.54214     13.32889      2.32153        -2.081901     -0.307732      0.259895
O       7.40666     12.83420     14.62701         1.787809      0.076780      0.224765
O       7.62693      1.63002      6.44938        -1.638828      0.078141     -0.430906
O       7.49209     13.33337      6.48320        -0.215531     -0.644673     -0.421860
O       7.57156      1.57251     10.46507        -0.317327      0.399128      0.053077
O       7.45841     13.45710     10.46201        -0.069978      0.039802      0.152960
O       7.44021      5.83963      2.44986         0.419462      0.082316     -0.570474
O       7.50642      5.26955     14.53953         0.212967      0.126492      0.497637
O       7.59246      5.76529      6.50215        -1.260723     -0.110873     -0.307124
O       7.47851      5.96016     10.40884         0.708937     -0.107838      0.088833
O       7.42369      9.08230      2.20493         0.224958      0.074622      0.433613
O       7.42602      9.67855     14.69132         0.967795     -0.125012      0.012090
O       7.38792      9.24181      6.37207         0.954121     -0.023036      0.313722
O       7.44465      9.06594     10.56034         0.345690      0.208643     -0.652626
O      11.22020      2.05085      2.40889         0.084055      0.631846      0.079530
O      11.28791      1.53722     14.59247        -0.686726      0.263754     -0.295982
O      11.23788     12.93684      2.46417        -0.019801      0.204589     -0.635942
O      11.26569     13.38242     14.52211        -1.488146     -0.054456      0.718709
O      11.32506      1.97643      6.48073         0.626133      0.209751     -0.265817
O      11.29075     12.86775      6.41122        -0.048432     -0.026067      0.123377
O      11.30893      2.21450     10.44565        -0.443373      0.223882     -0.071530
O      11.23953     12.83930     10.54528        -0.356657      0.212380      0.257163
O      11.17207      5.31159      2.39563         0.589027      0.547310     -0.020276
O      11.24809      5.94545     14.49293         0.933512     -0.327598      0.421443
O      11.35479      5.67758      6.49351        -2.013396     -0.690986     -0.297349
O      11.32909      5.34954     10.41746        -1.068368     -0.283526      0.566911
O      11.22784      9.49001      2.46182        -0.784514      0.420905     -0.447468
O      11.18308      8.95406     14.48743         0.852390      0.454799      0.317314
O      11.18785      9.42662      6.36839         0.259776      0.001568      0.283001
O      11.20724      9.74871     10.50816         0.389177     -0.569652      0.042647
O       1.57016      3.73376      2.50373         0.871091     -0.599998     -0.891503
O       2.27541      3.67854     14.52019        -0.520150      0.810374      0.360283
O       2.00544     14.97972      2.38761         0.232023      1.671769      0.454829
O       1.62430     14.99477     14.55344        -0.237211      0.557376     -0.293588
O      13.36162      3.68061      2.37168        -0.359202      1.533518      0.228744
O      12.92482      3.70511     14.57463        -0.440742      1.043694      0.205981
O      12.82638      0.03418      2.34812         0.426410     -1.209292     -0.193587
O      13.34227     14.95704     14.49818         0.512609      0.886454      0.783167
O       1.76820      3.73651      6.39461         0.253363     -0.639004     -0.070128
O       2.16452     14.98754      6.50401        -0.365484     -0.054188      0.069680
O      13.28350      3.73970      6.39896        -0.035368      0.011722     -0.061151
O      12.92585     14.88683      6.32815         0.418962      1.034566      0.085264
O       1.40887      3.77203     10.54195         1.105819      0.425554     -0.889184
O       2.17828      0.07768     10.54237        -0.532398     -0.293334     -0.120754
O      13.52420      3.69720     10.47923        -0.482834      1.772493     -0.091886
O      12.80470      0.06497     10.48013         0.299990     -1.251006      0.392091
O       2.08967      7.43306      2.38696        -0.500242      0.657527     -0.421645
O       1.58264      7.49454     14.64171         0.355598     -0.440953     -0.325238
O      12.87681      7.49857      2.41710        -0.022974     -0.846409      0.028958
O      13.59739      7.41489     14.53946        -1.145218      0.113911     -0.048597
O       1.95327      7.51962      6.28744         0.307232     -0.812310      0.584922
O      13.07938      7.52613      6.41349        -0.031987     -0.898013      0.105495
O       2.16979      7.54025     10.56586         0.091409     -0.302129     -0.338836
O      12.77654      7.47870     10.48384         0.405540      0.466232      0.095308
O       1.66125     11.30186      2.41055         0.056894     -0.912108     -0.340483
O       2.07287     11.26670     14.59175         0.870169      0.428068      0.207980
O      13.31868     11.26317      2.15937         0.091211      0.102606      0.376129
O      12.90023     11.10253     14.65361        -0.409483      1.287206      0.411264
O       1.63239     11.24416      6.37815         0.426300     -0.634918      0.129763
O      13.25853     11.18715      6.46803         0.225593     -0.206006      0.189748
O       1.62538     11.32955     10.50649        -0.227264     -1.757406      0.045542
O      13.41563     11.24133     10.48299        -0.343797     -1.251987     -0.235350
O       5.78894      3.70185      2.26323        -0.054395      0.216011      0.533589
O       5.36516      3.82204     14.61026        -0.096159     -1.730993     -0.081910
O       5.52168     14.95005      2.41838        -0.108519      0.884744      0.150149
O       6.04264      0.06154     14.56540        -0.442665     -0.453614      0.235436
O       5.90824      3.81269      6.46925        -0.004104     -1.803420     -0.192788
O       5.47584     14.96640      6.40177         0.069033      0.649272     -0.307585
O       5.98868      3.69463     10.58931        -0.043885      1.217417     -0.433616
O       5.25779      0.06608     10.49136         0.832700     -0.627906      0.312112
O       5.27309      7.44614      2.41280         0.318297      0.662962     -0.414095
O       5.91247      7.48047     14.41920        -0.073054      0.531587      1.021633
O       5.51482      7.48594      6.50982        -0.165592     -0.719653      0.125104
O       5.23010      7.52053     10.54890         0.257924     -0.335883     -0.660236
O       5.76268     11.18396      2.28041        -0.017471      0.441312      0.177584
O       5.31696     11.25574     14.66845        -0.237357      0.699368      0.063258
O       5.68208     11.19292      6.47527         0.297854      0.847749     -0.385483
O       5.88106     11.29737     10.39833         0.288182     -1.119834      0.388317
O       9.08726      3.76003      2.38274        -0.022468     -0.173336     -0.123039
O       9.84457      3.74610     14.55719        -0.569185     -0.349166     -0.194455
O       9.47953      0.03857      2.45614         0.602778     -0.642809     -0.488177
O       9.04774      0.02923     14.40430         0.178880     -0.456122      1.034700
O       9.28013      3.70972      6.33753         0.210271      1.217232      0.213232
O       9.72128     14.93309      6.38350        -0.278129      0.553575      0.410527
O       9.11632      3.79524     10.41257         0.051087     -0.320602      0.476435
O       9.60726      0.01046     10.49100         0.420414     -0.353909     -0.320223
O       9.55151      7.55491      2.23112         0.064998     -1.756944      0.258192
O       9.12748      7.46493     14.69775        -0.677994     -0.372740      0.005503
O       9.46212      7.48658      6.49515         0.050346      0.326568     -0.274795
O       9.68469      7.49964     10.69801        -0.192561     -0.441133     -0.690381
O       9.19431     11.27891      2.33373        -0.222127     -0.719140      0.073988
O       9.67488     11.27110     14.63635        -0.698464      0.025882     -0.588065
O       9.27469     11.21787      6.45002        -0.266664     -0.125569      0.016346
O       9.06323     11.24937     10.53706        -0.225205     -0.529444      0.191552
