  # total energy = -7878.71159680 
CRSYTAL
PRIMVEC
    15.6000000000000000    0.0000000000000000    0.0000000000000000
     0.0000000000000000   15.6000000000000000    0.0000000000000000
     0.0000000000000000    0.0000000000000000    17.640000000000000
PRESSURE
-6.46326 -6.47936 -7.96153 0.017126 0.20076 -0.03932
PRIMCOORD
320 1
Pb       3.82742      3.81593      4.42948        -0.093281     -0.061242     -0.431063
Pb       3.98097      3.98823     17.60982        -0.237885      0.034715     -0.760097
Pb       3.76549     15.45527      4.35662         0.624305      0.247328      0.000159
Pb       3.77794     15.56994      0.04485         0.217112      0.086815     -0.770599
Pb      15.56011      3.85221      4.37932         0.555511      0.492975     -0.484809
Pb       0.03238      3.99655     17.63885        -0.357854     -0.112177     -0.706966
Pb      15.57028     15.53825      4.35383        -0.207963     -0.422854     -0.276472
Pb      15.41103     15.58968     17.62527         0.086339      0.158280     -0.662405
Pb       3.82441      4.01644      8.83528        -0.042573     -0.232052     -0.926606
Pb       3.88283     15.59272      8.75758         0.037235      0.125853      0.064975
Pb      15.54972      3.98924      8.85485        -0.081180     -0.243002     -0.883137
Pb      15.54239     15.58886      8.65930        -0.307810      0.116080      0.621738
Pb       3.95208      3.69496     13.28110        -0.025416     -0.044339      0.023945
Pb       3.85041     15.55114     13.16111         0.504075     -0.234747     -0.478574
Pb       0.01937      3.89335     13.18341        -0.029481     -0.115562     -0.336983
Pb      15.51963      0.00309     13.20151         0.171637      0.172005     -0.336478
Pb       3.94093      7.76520      4.46012        -0.410519      0.166488     -0.797150
Pb       3.99968      7.75425     17.61864        -0.214741     -0.016668     -0.584140
Pb       0.05950      7.83369      4.34974         0.004782     -0.339100     -0.225836
Pb       0.08663      7.77107     17.50866        -0.036468      0.013783     -0.145899
Pb       3.89475      7.83996      8.82153        -0.249606     -0.031856     -0.276255
Pb      15.49587      7.78710      8.87945        -0.035446      0.531688     -0.684606
Pb       3.92544      7.73306     13.18792        -0.485613      0.247337     -0.467228
Pb       0.10602      7.79693     13.18989         0.000319     -0.161201     -0.532337
Pb       3.91281     11.65696      4.36543        -0.166049     -0.438399     -0.394617
Pb       3.86181     11.71507     17.61320         0.302545     -0.493305     -0.530362
Pb      15.57453     11.68458      4.30362        -0.000226      0.233077      0.131369
Pb      15.58717     11.70728     17.46019        -0.259050     -0.217116      0.072092
Pb       3.82313     11.73128      8.86689         0.141025     -0.039705     -0.083679
Pb      15.52569     11.82557      8.78128        -0.046828     -0.618522     -0.340416
Pb       3.84552     11.81132     13.17304        -0.207765     -0.224622     -0.513891
Pb      15.44452     11.76571     13.19055         0.418121     -0.074014     -0.523258
Pb       7.77843      3.65599      4.49438         0.156887     -0.235330     -0.444838
Pb       7.75553      3.92010      0.00454         0.141149     -0.290551     -0.494825
Pb       7.62236     15.46844      4.43631        -0.120824      0.222704     -0.351765
Pb       7.68471      0.02460     17.58451         0.320722      0.040102     -0.365545
Pb       7.57315      3.95086      8.82894         0.324067     -0.229986      0.015909
Pb       7.76209      0.01461      8.82173        -0.069533      0.131457     -0.627435
Pb       7.94141      3.95497     13.24537        -0.157891     -0.090649     -0.652037
Pb       7.81728      0.10908     13.17065        -0.162179     -0.453952     -0.257302
Pb       7.89446      7.68049      4.41306         0.179171      0.265762     -0.562926
Pb       7.77952      7.83234      0.02949         0.293687     -0.373241     -0.672666
Pb       7.70349      7.83550      8.79329         0.159540     -0.080777     -0.255188
Pb       7.75232      7.86687     13.16728         0.306899     -0.171064     -0.369928
Pb       7.80634     11.62153      4.40860         0.002389      0.006441     -0.628947
Pb       7.76862     11.67682     17.57030         0.272407     -0.063669     -0.693863
Pb       7.81424     11.76069      8.79428         0.235094     -0.087334      0.312122
Pb       7.74913     11.82303     13.15444         0.380161     -0.137519     -0.541276
Pb      11.75165      3.82301      4.38912        -0.250252     -0.026498     -0.846774
Pb      11.71236      3.81608      0.04252         0.690511     -0.216158     -0.125148
Pb      11.58317     15.42115      4.42515         0.194404      0.182420     -0.610644
Pb      11.52418     15.48766      0.03237         0.361518     -0.006462     -0.694145
Pb      11.59502      3.93081      8.79090         0.570853     -0.062809     -0.141637
Pb      11.79522      0.01994      8.75374        -0.134793      0.565455     -0.546279
Pb      11.79860      3.92627     13.16640        -0.154825      0.289162     -0.149532
Pb      11.66923     15.58516     13.14649        -0.334247     -0.238406      0.120908
Pb      11.70648      7.70318      4.33268        -0.099583     -0.097482     -0.542992
Pb      11.63638      7.70104     17.55185         0.265305      0.320349      0.023984
Pb      11.60039      7.80771      8.75329         0.443750     -0.156059     -0.189208
Pb      11.69606      7.73320     13.17148         0.537629      0.027065     -0.160711
Pb      11.69353     11.52247      4.25822        -0.243212      0.363890      0.372913
Pb      11.71287     11.60444     17.50291        -0.028029      0.454878      0.060331
Pb      11.72275     11.70723      8.77931        -0.323850     -0.296972     -0.260393
Pb      11.60801     11.68205     13.15642        -0.206570     -0.040050     -0.303331
Ti       1.95868      1.82367      2.36859         0.207842      1.276324     -0.372141
Ti       1.94888      1.90331     15.61842         0.010272      0.654700     -1.031820
Ti       1.89202     13.61887      2.22622        -0.198513     -0.826731      0.427309
Ti       2.06418     13.60863     15.57925        -0.954773     -0.094845     -1.126627
Ti      13.68757      1.84704      2.39480        -1.037824      0.793490     -1.227761
Ti      13.64272      1.95079     15.65559         0.402062      0.388860     -0.508333
Ti      13.52458     13.58424      2.31890         0.542021      0.011107     -0.796851
Ti      13.68232     13.64063     15.50432        -0.427301      0.233486     -0.831568
Ti       1.80034      1.87442      6.75176         0.853680      1.520247      0.020874
Ti       1.91534     13.65593      6.79911        -0.263256      0.030981      0.009130
Ti      13.62095      1.97445      6.61741        -0.358401     -0.269982      1.109210
Ti      13.56874     13.66038      6.64675         0.457411     -0.435363     -0.505338
Ti       2.01066      1.92567     11.13466        -1.263914     -0.601030      0.004384
Ti       1.87211     13.67343     11.06608         0.871537     -0.498787     -0.605215
Ti      13.61110      1.96361     11.19230         1.191051      0.299957     -2.366610
Ti      13.57714     13.72983     11.09245         0.304117     -1.009046      0.339271
Ti       2.06815      5.78209      2.29733        -0.885133      0.597078     -0.599944
Ti       2.04748      5.77759     15.47724        -0.497559      0.342263      0.457867
Ti      13.71142      5.78232      2.23595         0.102615      0.006215     -0.565976
Ti      13.64729      5.90385     15.53640         0.877654     -0.765250     -0.051814
Ti       1.90346      5.92350      6.74819        -0.257673     -1.147486     -0.395176
Ti      13.63315      5.82439      6.69356         0.239412      0.637150      1.174794
Ti       2.05543      5.72594     11.12771        -0.688074      1.263390      0.507070
Ti      13.69772      5.86450     11.12401        -0.069754      0.310097     -0.195305
Ti       1.94275      9.72568      2.32562         0.278109     -0.297039      0.183062
Ti       1.98229      9.71609     15.46486         0.125060     -0.306014     -0.814025
Ti      13.64130      9.72163      2.43489         0.500974     -0.405265     -1.536381
Ti      13.66286      9.76418     15.60104        -0.473557     -0.174652     -0.197662
Ti       1.97586      9.78327      6.85688        -0.472712     -0.241493     -0.270710
Ti      13.56567      9.73596      6.75959         1.562894      0.050112     -0.860020
Ti       1.97412      9.70901     11.18397        -0.419538     -0.107405      0.372224
Ti      13.63141      9.75225     11.22726         0.622041     -0.867848     -1.346262
Ti       5.79787      1.86441      2.31041         0.171094     -0.288094      1.291711
Ti       5.79428      1.89000     15.64591         0.319355      0.374970     -1.712268
Ti       5.78109     13.49495      2.27909         0.478714      0.473819     -0.624467
Ti       5.92465     13.59000     15.61018        -0.373412      0.319815     -1.037172
Ti       5.74956      1.93350      6.78885         0.290076     -0.966323     -0.733538
Ti       5.78047     13.64001      6.77208         0.529236      0.428537      0.116940
Ti       5.86139      1.99239     11.16271         0.622709     -0.500020     -1.148336
Ti       5.85238     13.60590     11.07714        -0.790197      0.981176     -0.115319
Ti       5.95804      5.78086      2.31319        -1.179226      0.209593     -0.706970
Ti       5.98689      5.81172     15.50059        -0.986034     -0.233488      1.499601
Ti       5.83265      5.83483      6.63872        -0.597669     -0.065457      1.365493
Ti       5.87275      5.90414     11.18109         0.385530     -1.377187     -1.061141
Ti       5.84559      9.63339      2.35102        -0.643806      0.157527     -0.381384
Ti       5.86537      9.63915     15.50497        -0.129842      0.641662      0.044904
Ti       5.85553      9.79874      6.85600        -0.873517      0.154485     -0.906052
Ti       5.85699      9.72321     11.18770        -0.075306      0.453538     -0.209120
Ti       9.65475      1.83055      2.41125         0.797187      1.015127     -0.728014
Ti       9.78739      1.96963     15.64397         0.030181     -1.312773     -0.484837
Ti       9.67203     13.59102      2.26821         0.091922     -0.391491      0.651046
Ti       9.75498     13.66712     15.53636         0.622103     -0.190706     -1.063565
Ti       9.72015      1.95178      6.76980        -0.592273      0.231937     -0.454309
Ti       9.71280     13.66542      6.74645         0.016903     -0.185332     -0.393106
Ti       9.79484      1.96321     11.09785        -0.673673     -0.177179     -1.495914
Ti       9.72870     13.66374     11.03461        -0.732952     -0.798697     -0.338443
Ti       9.76426      5.79159      2.27695         0.461262     -0.036814      0.233217
Ti       9.83876      5.72409     15.60589        -0.394839      0.480509     -1.614429
Ti       9.66615      5.82131      6.78878         0.739747     -0.108706     -0.015570
Ti       9.74507      5.82202     11.10400        -0.189750     -0.404161     -0.451083
Ti       9.72093      9.68346      2.26740        -0.230334     -0.413707      0.141862
Ti       9.73736      9.64370     15.53934         0.725921      0.586160      0.499664
Ti       9.70465      9.74624      6.77735         0.462053      0.194130     -0.396225
Ti       9.80600      9.59153     11.18834        -0.730834      2.103972     -1.813765
O       2.02093      1.92596      0.59318        -0.030917     -0.250660      0.776408
O       1.99800      2.08409     13.74783        -0.015867     -0.576064      1.471832
O       1.93649     13.62214      0.44163         0.091483      0.055299      0.227769
O       2.12694     13.49203     13.79122         0.040263      0.527194      0.605298
O      13.67116      2.06216      0.52572        -0.001905     -0.701776      1.790538
O      13.76700      1.99213     13.82982        -0.208253     -0.321820      0.628944
O      13.42897     13.41286      0.50328         0.846629      0.773911      1.158702
O      13.62399     13.68141     13.67383         0.238583     -0.304904      0.386761
O       1.84391      1.85570      4.96635         0.035125     -0.302034      0.292566
O       1.90899     13.71135      5.01789         0.096757     -0.110592      0.406541
O      13.62612      1.72125      4.84202         0.277832      0.682315      0.762893
O      13.60308     13.65262      4.82043        -0.000065      0.377354      1.572129
O       2.00864      1.93337      9.38913        -0.026476     -0.075399      0.115652
O       1.88216     13.66779      9.23640         0.183424     -0.024897      1.194411
O      13.53894      1.91765      9.34490         0.122627     -0.155047      2.046066
O      13.63011     13.69468      9.32397        -0.190093      0.090261      0.619090
O       2.09439      5.88038      0.44178        -0.027138     -0.538883      1.511346
O       1.88039      5.75074     13.72752         0.493443     -0.238909     -0.016873
O      13.60393      5.65390      0.39341         0.136543      0.279185      1.743253
O      13.67950      5.81526     13.73220        -0.214223     -0.021565      0.915780
O       1.75688      5.91881      4.95979         0.482659      0.110199      0.546377
O      13.78315      5.87558      4.95203        -0.305475     -0.111779     -0.012328
O       2.07199      5.81270      9.35282        -0.148879     -0.233983      0.131408
O      13.69472      5.81432      9.32749         0.250014      0.281590      0.940833
O       1.93834      9.68323      0.57516        -0.030875      0.067143      0.185126
O       1.90023      9.75875     13.64476         0.056641     -0.017788      1.422449
O      13.73618      9.85130      0.63591        -0.416262      0.016798      1.640709
O      13.60144      9.77982     13.82285         0.274889      0.168091      0.458828
O       2.16518      9.78660      5.05825        -0.466529      0.044162      1.029402
O      13.63769      9.88772      4.90123        -0.304224     -0.577290      1.366205
O       1.90322      9.58155      9.40630         0.369678      0.235082      0.792714
O      13.68224      9.62575      9.41197        -0.592802      0.278618      0.944045
O       5.93935      1.92430      0.55217        -0.393028      0.154594      0.161083
O       5.80487      1.95144     13.74724        -0.240400     -0.147063      1.696192
O       5.87740     13.30793      0.47731        -0.107743      0.663749      0.624670
O       5.89299     13.72138     13.81011        -0.024905     -0.465896      1.058133
O       5.89703      1.76355      4.93460        -0.259488      0.754133      1.482934
O       5.93814     13.74158      4.95889        -0.410502     -0.515885      1.026575
O       5.94784      1.95982      9.25789        -0.227340      0.065183      2.367323
O       5.64759     13.76772      9.30048         0.834863     -0.601354      0.664276
O       5.77001      5.86195      0.42793         0.381825     -0.366817      1.962159
O       5.94816      5.75264     13.78278         0.214203      0.205001     -1.047709
O       5.81363      5.80152      4.89469         0.143595      0.166717      0.049770
O       5.92439      5.73992      9.34584        -0.101380      0.588573      1.020662
O       5.67283      9.53141      0.54124         0.920208      0.434812      1.117140
O       6.00187      9.75201     13.75625        -0.268920     -0.573783      0.027027
O       5.74208      9.94950      5.04866         0.161858     -0.558146      0.862906
O       5.79551      9.68309      9.40859         0.170517     -0.179870      0.313199
O       9.71891      1.96046      0.59725        -0.127667     -0.506197      0.947912
O       9.85457      1.89867     13.85868        -0.030995      0.145845      0.601885
O       9.72078     13.65380      0.52251        -0.119594      0.000572     -0.103073
O       9.68459     13.77368     13.72759         0.371882     -0.248464      0.880904
O       9.67553      2.09521      4.91894         0.242858     -0.214375      1.010796
O       9.73376     13.54998      4.90405        -0.246706      0.187096      1.476810
O       9.78115      1.88119      9.24798         0.064986      0.124219      1.941680
O       9.58555     13.66539      9.22633         0.700267      0.218346      1.453986
O       9.79671      5.98607      0.50770        -0.106206     -0.717325      0.233805
O       9.84337      5.55273     13.74275        -0.110112      0.578678      1.578622
O       9.67672      5.92534      5.01399         0.166206     -0.301913      0.287533
O       9.66334      5.84167      9.30633         0.022524      0.265638      0.907082
O       9.62438      9.54380      0.46684         0.144027      0.201064      1.079996
O       9.92885      9.77453     13.79623        -0.560309     -0.398898      0.220177
O       9.78378      9.80348      4.92468        -0.370014     -0.077199      2.173249
O       9.81484      9.72121      9.31635         0.024249     -0.448696      1.908721
O       3.90126      1.87281      2.89831         0.132712      0.339046     -0.597450
O       3.88347      2.00138     16.05669        -0.150042     -0.627821     -0.057390
O       3.88206     13.62915      2.62280         0.029776     -0.208789      0.107831
O       3.97284     13.61639     15.98026        -0.600529     -0.675660      0.350795
O       0.00387      1.91167      2.72270         0.433632     -0.283781      0.039766
O       0.01268      1.81534     16.21419         0.274210      0.508061     -0.797944
O      15.57412     13.71694      2.73727         0.800809     -0.239319     -0.460164
O       0.04043     13.58387     15.66519        -0.086151      0.020375      0.966651
O       3.82917      1.74326      7.16337         0.334857      1.010572     -0.576556
O       3.86227     13.77191      7.08581         0.006755     -0.404318     -0.039585
O      15.49176      1.89226      7.24149        -0.000364      0.149205     -0.661021
O      15.54590     13.58434      7.12245        -0.158660      0.146280     -0.178409
O       3.93967      1.92665     11.61510         0.679220      0.288021     -0.295103
O       3.97585     13.52692     11.50040        -0.243345      0.384987      0.340817
O       0.04692      1.91944     11.51978        -0.118133      0.008713      0.312343
O       0.07015     13.68654     11.47188        -1.348968     -0.369596      0.357123
O       3.87558      5.84630      2.75005         0.662271      0.142090      0.088169
O       3.96790      5.76031     15.78749        -0.607091      0.020834      0.269604
O       0.02340      5.73472      2.50025         0.020593      0.029529      0.268967
O      15.59902      5.85733     15.93487        -0.271890     -0.213865      0.126606
O       3.88339      5.72789      7.04436         0.354993      0.183661      0.106515
O       0.02771      5.83708      7.23250        -0.752142      0.294082      0.075398
O       3.96020      6.00840     11.44239         0.169832     -0.969161      0.352443
O       0.07452      5.90791     11.51472        -0.249835     -0.643265     -0.232913
O       3.86947      9.82451      2.71634         0.520833     -0.427227      0.383320
O       3.90414      9.64738     15.88687        -0.261768      0.367449     -0.141220
O       0.00442      9.71342      2.87405         0.061534      0.468183     -0.286928
O      15.55398      9.71734     16.14146         0.318647      0.239779     -0.976349
O       3.85811      9.77393      7.34084         0.151047     -0.336066     -0.122621
O      15.52366      9.74885      7.23603         0.617435      0.116070     -0.377282
O       3.91992      9.62774     11.63164         0.211496      0.179951     -0.374690
O      15.53581      9.59507     11.56150         0.958957      0.624950      0.142679
O       7.76213      1.83883      2.85798        -0.024510      0.294907     -0.408260
O       7.73486      1.86061     15.97543         0.455604      0.018920      0.172962
O       7.75835     13.51694      2.75435         0.486042      0.234707     -0.311070
O       7.85137     13.76978     15.90318        -0.959800     -0.597155      0.508287
O       7.81049      1.91500      7.02422         0.161726      0.415439      0.291992
O       7.74838     13.56145      7.29139        -0.366915      0.549041     -1.015131
O       7.89460      1.93851     11.64373        -0.391848     -0.189410     -0.498383
O       7.77262     13.66656     11.52015         0.193205     -0.077342     -0.174059
O       7.77509      6.04607      2.58281         0.036301     -0.667507      0.078256
O       7.88188      5.74759     16.01301        -0.543015     -0.022433     -0.226886
O       7.75561      5.82940      7.02342        -0.082967     -0.132562      0.310886
O       7.83500      5.93786     11.61759         0.383264     -0.193296     -0.044818
O       7.79669      9.64181      2.84391        -0.053349      0.427159     -0.578351
O       7.84864      9.63357     15.91142        -0.398124     -0.307848      0.224360
O       7.75802      9.83852      7.24909         0.064889     -0.199199     -0.490723
O       7.87668      9.68633     11.56562        -0.352054     -0.295883      0.149656
O      11.72341      2.01389      2.86140        -0.558424     -0.406283     -0.451913
O      11.75900      1.95584     16.11363        -0.669725     -0.427747     -0.305788
O      11.68227     13.58530      2.61309        -0.847144      0.202293      0.567677
O      11.78583     13.65535     15.81716        -1.534983      0.033905      0.441442
O      11.74116      1.97112      7.10106        -0.096864     -0.324524     -0.255137
O      11.69972     13.67278      6.98649        -0.812209     -0.017277      0.389167
O      11.74195      2.04219     11.53681        -0.842021     -0.675117      0.290529
O      11.67628     13.61327     11.39652         0.352060      0.390914      0.064687
O      11.69560      5.69419      2.72187         0.103672      0.565820      0.027782
O      11.71976      5.77549     15.88973         0.171646     -0.077763      0.269892
O      11.68526      5.81225      7.27874         0.075360      0.727938     -0.821375
O      11.72801      5.80130     11.44619        -0.398325      0.032420      0.297653
O      11.66287      9.62506      2.79341         0.665725      0.323180     -0.405299
O      11.67747      9.74062     16.06150        -0.127549     -0.233472     -0.229550
O      11.68860      9.64105      7.21541        -0.893864      0.953728     -0.363037
O      11.68565      9.71899     11.73209        -0.061008     -0.000242     -0.549553
O       2.05379      3.87577      2.91412        -0.513612     -0.134008     -0.708111
O       1.97195      3.83604     15.87608        -0.367768      0.442915      0.503684
O       2.07248     15.54491      2.70054        -0.735052      0.012899     -0.150272
O       2.00236     15.57507     15.91417         0.187035     -0.189335      0.218619
O      13.68249      3.87057      2.86435         0.026853     -0.088801     -0.249024
O      13.64947      3.86426     15.93994         0.304882      0.085871     -0.051822
O      13.62474     15.53150      2.67680        -0.068728      0.627050     -0.266206
O      13.68040     15.51651     15.89867         0.183473      0.704544      0.634833
O       1.80613      3.82553      7.02219         0.539958     -0.074418      0.586656
O       1.80888     15.59656      7.24547         0.160143     -0.612933     -0.549723
O      13.66715      3.94108      7.08715         0.057548     -0.748329     -0.447024
O      13.59565     15.58175      7.18920         0.158089     -0.120284     -0.666905
O       2.06616      3.82582     11.39814        -0.017972      0.925092      0.481650
O       2.03086     15.50769     11.55587         0.218848      0.711058      0.131505
O      13.67736      3.88487     11.47435         0.362739      0.182308      0.425398
O      13.72305     15.58421     11.62465        -0.679782      0.079430     -0.342883
O       1.94559      7.80426      2.79725         0.118859     -0.315434     -0.072724
O       1.87654      7.78199     15.77120         0.204782     -0.047493      0.304082
O      13.70179      7.72549      2.66311        -0.282216      0.073424      0.210554
O      13.58017      7.86337     16.05045         0.209798     -1.066916     -0.494660
O       1.99797      7.74973      7.23046        -0.026943      0.849435     -0.272793
O      13.58698      7.85519      7.10598         0.233871     -0.748958     -0.044503
O       2.03012      7.71011     11.70913        -0.310039      0.623769     -0.355560
O      13.63858      7.78149     11.65555        -0.381781     -0.585145     -0.211359
O       1.97043     11.73236      2.67602        -0.410677     -0.015900      0.063465
O       1.86324     11.62496     15.83943         0.716737      0.157864      0.631200
O      13.70014     11.73724      2.91172        -0.341059     -0.874952     -0.866808
O      13.57138     11.71607     16.02603         0.663267     -0.648134     -0.457310
O       1.95140     11.68629      7.39257        -0.020668      0.172132     -0.934839
O      13.53549     11.73514      7.22170         0.131926     -0.146825     -0.262864
O       2.02520     11.72611     11.51618        -0.341945     -0.856876     -0.223239
O      13.65367     11.64384     11.50255         0.037910      1.052187      0.188919
O       5.84676      3.90643      2.71954         0.207328     -0.060472     -0.276515
O       5.79834      3.81007     15.95721         0.583037      0.498212      0.323634
O       5.80573     15.53753      2.61356         0.308522     -0.030016     -0.052987
O       5.71119     15.52521     16.14674         0.538611      0.401863     -0.228202
O       5.86678      3.85303      7.25536        -0.454505      0.222526     -1.021720
O       5.85584      0.01503      7.21121         0.301215     -0.590509     -0.150892
O       6.03803      3.94556     11.45718        -0.754521     -0.985349      0.283870
O       5.83850     15.58308     11.53818         0.176473      0.564777     -0.124883
O       5.86919      7.78947      2.80440        -0.752048     -0.067756      0.055913
O       5.77749      7.71176     15.98519         0.840315      0.173065     -0.532288
O       5.82574      7.80703      7.17679        -0.001624     -0.287581     -0.372063
O       5.93630      7.73950     11.59686        -0.004633      1.048139      0.252151
O       5.83979     11.64809      2.67551         0.057821     -0.423170      0.466118
O       5.92445     11.57117     15.93730         0.076370      0.616943      0.154893
O       5.69273     11.68116      7.22063         0.290923      0.903282     -0.049410
O       5.88660     11.60835     11.54256         0.218662      0.565971     -0.105345
O       9.60801      3.92366      2.62189        -0.174970     -0.252436      0.377459
O       9.75503      3.79885     15.99414        -0.126045      0.602906      0.479293
O       9.77225     15.53076      2.70022         0.003148     -0.009186     -0.015026
O       9.76877     15.57115     16.03456         0.295676      0.499142      0.280112
O       9.89873      3.91566      7.25017        -1.257194     -0.162075     -0.933820
O       9.71157      0.00494      7.07533         0.228035     -0.388976     -0.198114
O       9.66616      3.90389     11.47382         0.469929     -0.354643     -0.050836
O       9.77742     15.57613     11.50504         0.273837      0.565421     -0.034398
O       9.78696      7.74957      2.82459        -0.012001      0.018485     -0.013673
O       9.82694      7.63130     15.99167        -0.251879      1.020446     -0.621148
O       9.62547      7.86413      7.17067         0.154122     -0.283306     -0.189408
O       9.78031      7.77653     11.58049         0.290147     -0.659202      0.047387
O       9.82140     11.56838      2.59334        -0.511107      0.570497      0.002908
O       9.71241     11.72638     15.90803        -0.128586     -0.283260      0.111808
O       9.66186     11.75848      7.37078         0.868874     -0.725077     -1.180875
O       9.68933     11.70763     11.49900         0.451727      0.323355      0.214408
