  # total energy = -7881.94884089 
CRSYTAL
PRIMVEC
    15.3600000000000000    0.0000000000000000    0.0000000000000000
     0.0000000000000000   15.3600000000000000    0.0000000000000000
     0.0000000000000000    0.0000000000000000    17.440000000000000
PRESSURE
0.650757 0.315901 -2.3294 0.194882 0.464627 -0.035065
PRIMCOORD
320 1
Pb       3.73681      3.84153      4.29759         0.957867     -0.288499      0.246200
Pb       3.81752      3.83939     17.36327         0.001346     -0.470662     -0.230246
Pb       3.81265      0.02571      4.25832         0.378429     -0.029457     -0.125849
Pb       3.75040      0.05627      0.04056         0.494126      0.657572     -0.500228
Pb      15.33302      3.77364      4.36854        -0.253228      0.211945     -0.524046
Pb       0.00391      3.92050     17.39020         0.134546     -0.238109      0.421341
Pb      15.29431     15.27685      4.30104        -0.137026      0.329642     -0.418551
Pb      15.26642     15.28893      0.01604        -0.327090      0.221863     -0.072496
Pb       3.79156      3.75200      8.75892         0.184768     -0.041012     -0.357380
Pb       3.87384     15.32931      8.69409         0.151808     -0.003682     -0.313783
Pb      15.35699      3.75066      8.70093         0.045724      0.559272     -0.502443
Pb      15.32717      0.04131      8.66102         0.194067     -0.175441     -0.274222
Pb       3.65010      3.82334     13.02726         0.582697     -0.194321      1.176866
Pb       3.75344     15.25077     13.07516         0.889968      0.476044      0.493604
Pb      15.32171      3.80539     13.04216         0.317699      0.316798      0.150610
Pb       0.04321      0.02179     13.01330        -0.607046     -0.275203      0.272800
Pb       3.82516      7.62733      4.27916         0.062560      0.309568      0.631471
Pb       3.76529      7.64839     17.36551         0.327292     -0.475013      0.416128
Pb      15.35510      7.69253      4.38899         0.290079     -0.129886     -0.588062
Pb      15.18244      7.70758     17.33053         0.476767      0.076052      0.097206
Pb       3.93693      7.61879      8.76843        -0.677563      0.106396      0.003239
Pb       0.06501      7.61272      8.72058        -0.071980     -0.121820     -0.285796
Pb       3.76860      7.65435     13.00058         0.046163     -0.030044     -0.144152
Pb       0.04847      7.64074     13.03931        -0.206001      0.225517     -0.457307
Pb       3.75802     11.52765      4.23041         0.073402      0.211294      0.305135
Pb       3.93128     11.50004     17.42977        -0.260321      0.224505      0.127804
Pb      15.28610     11.56732      4.32893         0.855038     -0.567210     -0.509601
Pb      15.30901     11.55106     17.35405         0.316330     -0.629379      0.203078
Pb       3.77872     11.54687      8.62725         0.427183     -0.060849      0.441091
Pb      15.27945     11.39251      8.64905         0.515912      0.109262     -0.022416
Pb       3.80526     11.54046     13.13187         0.235761     -0.133133     -0.441853
Pb      15.33263     11.51938     13.14588         0.062697     -0.050376     -0.150549
Pb       7.70187      3.76008      4.42911        -0.575688      0.368319     -0.575103
Pb       7.64150      3.90847     17.33421        -0.139329     -0.279346     -0.083968
Pb       7.73039      0.09657      4.25601        -0.792660     -0.574277      0.609890
Pb       7.70633      0.02829     17.39575        -0.114557      0.268270     -0.120744
Pb       7.72690      3.67385      8.76468        -0.603712      0.836736      0.084381
Pb       7.62376     15.19235      8.63299         0.294833      0.150122     -0.110684
Pb       7.69261      3.81708     13.19743        -0.270066     -0.706672     -0.115281
Pb       7.56775      0.01368     13.12429         0.541623     -0.155395     -0.190931
Pb       7.62651      7.62109      4.30928         0.226545      0.040951     -0.178024
Pb       7.73106      7.65746     17.40718         0.203943      0.126569     -0.256890
Pb       7.56192      7.69733      8.67234         0.377751     -0.084611     -0.298467
Pb       7.52406      7.63228     12.99416         0.161692      0.286987     -0.041332
Pb       7.67129     11.53248      4.33992         0.286878      0.065668     -0.216319
Pb       7.76510     11.50595      0.08112        -0.155871     -0.630809     -0.493158
Pb       7.49940     11.45652      8.64307         0.746598      0.133035     -0.364013
Pb       7.63139     11.39755     13.10045         0.741132      0.155703     -0.241367
Pb      11.44032      3.81397      4.36806         0.220409     -0.157948     -0.265295
Pb      11.62709      3.83448     17.36196        -0.549929      0.227946      0.033375
Pb      11.38647     15.33810      4.27972         0.308972      0.216064      0.124127
Pb      11.56768     15.33431     17.38856        -0.139374     -0.186237     -0.052972
Pb      11.43308      3.83327      8.72493         0.248448      0.123166     -0.079659
Pb      11.51402     15.23647      8.65237        -0.347312      0.163090     -0.214325
Pb      11.55544      3.81045     13.09802        -0.147865     -0.393326     -0.029396
Pb      11.59224     15.34513     12.92188        -0.233916     -0.158980      0.624834
Pb      11.41580      7.78865      4.30086         0.292823     -0.964035      0.418057
Pb      11.58540      7.59305     17.40529        -0.475489      0.045359     -0.492632
Pb      11.41646      7.61145      8.72404         0.004975      0.246954      0.250629
Pb      11.51504      7.72131     12.90935        -0.300116      0.186413      0.441263
Pb      11.52716     11.47073      4.42121        -0.712959      0.100973     -0.684096
Pb      11.52613     11.49239     17.43824         0.001055     -0.111205     -0.412074
Pb      11.55209     11.52998      8.69478        -0.430614     -0.045607     -0.231308
Pb      11.47958     11.44735     12.99304        -0.521814      0.228889     -0.154125
Ti       1.89817      1.93927      2.24876         0.584257      0.390603     -1.126626
Ti       1.80285      1.91675     15.44126         1.645446      1.007411      1.082539
Ti       1.87924     13.46762      2.27108         0.727656     -0.345171      1.006214
Ti       1.99965     13.45198     15.39898        -0.610909      0.331039     -0.646533
Ti      13.46571      1.87644      2.29435        -0.594808     -0.429902     -0.776880
Ti      13.41885      1.91004     15.38683        -0.163174     -0.995599     -0.021760
Ti      13.34300     13.36492      2.33751         0.834899      1.088132     -0.830617
Ti      13.46854     13.35622     15.36474        -0.477103      0.984220     -0.636725
Ti       1.83633      1.84023      6.61251         1.244357      0.541355      0.855032
Ti       1.89441     13.38864      6.66924         0.828846      0.201257     -0.559426
Ti      13.36781      1.91003      6.65620         0.199172      0.007449     -1.849436
Ti      13.50956     13.41889      6.56075        -1.301681      0.497538     -0.018367
Ti       1.85458      1.88978     11.02858         1.056574      0.828701     -0.126711
Ti       1.94866     13.46375     11.00359         0.216883      0.128419      0.875358
Ti      13.43763      1.94580     10.97073        -0.310803     -0.174571      1.836657
Ti      13.50448     13.37796     11.01265        -0.806647      0.786777      1.747202
Ti       1.93413      5.72393      2.32753        -0.841720      0.598136      0.293996
Ti       1.85807      5.79119     15.39021         0.946469     -0.713638     -0.780921
Ti      13.37221      5.72746      2.37453         0.595994     -0.035827     -0.893838
Ti      13.43707      5.67320     15.26650        -0.584883      1.809375      0.328981
Ti       1.96697      5.71538      6.57975        -0.795992     -0.109468      0.399934
Ti      13.44328      5.76496      6.70786         0.054729      0.009822     -1.107723
Ti       1.93655      5.71370     11.02362        -0.516029      0.700216      0.754960
Ti      13.39142      5.74327     11.11219         1.131294      0.018443     -1.216884
Ti       2.00849      9.54432      2.27588        -0.738747      0.363746      2.482916
Ti       2.03339      9.58841     15.37012        -1.867541     -0.079114     -0.529013
Ti      13.50567      9.51992      2.31510         0.230667      0.302950     -0.448074
Ti      13.43542      9.59346     15.30809         0.304644     -1.168985     -0.304864
Ti       1.96960      9.54187      6.67751        -0.519427     -0.086028     -0.743801
Ti      13.42784      9.55835      6.64176         0.453989     -0.277912      0.543629
Ti       1.88824      9.73063     11.08210         0.009369     -1.112836     -0.240346
Ti      13.39635      9.60692     10.99043         0.597835      0.426893      0.597350
Ti       5.72158      1.96132      2.27459        -0.326083     -0.081080     -0.023591
Ti       5.78105      1.87591     15.32652        -1.723894      0.899817      0.025461
Ti       5.75917     13.45399      2.25334        -1.188676      0.649096     -0.368400
Ti       5.81645     13.40409     15.44922        -0.627090      0.423768      0.636581
Ti       5.68172      1.95246      6.66206         0.606874     -0.167360     -0.414133
Ti       5.73315     13.43801      6.55709         0.345274      0.334575      0.918114
Ti       5.72795      1.89451     11.15725        -0.591897     -0.356604     -0.307745
Ti       5.84741     13.33960     11.10586        -0.833442      1.353119     -0.375787
Ti       5.72792      5.78167      2.30075         0.639405     -0.748124      0.331286
Ti       5.76294      5.73611     15.31697        -0.807294     -0.195423     -0.446509
Ti       5.62349      5.78920      6.76734         2.086681     -0.958918     -1.014961
Ti       5.77823      5.59706     11.09500        -1.135960      0.917559     -0.464229
Ti       5.74869      9.61451      2.30213         0.734098      0.099371      0.513599
Ti       5.77988      9.56508     15.40884         0.690769     -0.578429     -0.245452
Ti       5.66188      9.65232      6.51665         0.936250     -0.195851      0.557783
Ti       5.73793      9.57164     10.97496        -0.791613      0.027345     -0.149621
Ti       9.54088      1.94429      2.27716         0.791475      0.527249     -0.746950
Ti       9.61673      1.89593     15.40979         0.273365     -0.443167     -1.682045
Ti       9.54660     13.47298      2.22986         0.317546     -0.406451      0.466187
Ti       9.55157     13.37331     15.39824         1.662691      0.381759     -0.283338
Ti       9.54318      1.86675      6.78594         0.260369     -0.635000     -0.764073
Ti       9.63108     13.32179      6.61762        -0.565711      1.346983     -0.917043
Ti       9.62146      1.90789     11.10606        -0.109169     -0.645181     -1.079736
Ti       9.58434     13.42922     11.04243        -0.247483     -1.568115     -0.680858
Ti       9.59260      5.78701      2.29612         0.004693     -0.503311     -0.830634
Ti       9.56135      5.77374     15.25136         1.114266      0.571836      0.724611
Ti       9.55279      5.72315      6.71403        -0.303869      0.592519      0.284469
Ti       9.55755      5.70225     11.11805        -0.006047      1.180303     -0.786234
Ti       9.63341      9.64030      2.37230        -0.355930     -0.103353     -0.481098
Ti       9.64068      9.59586     15.35980         0.041835     -0.911496     -0.626431
Ti       9.63141      9.56218      6.56972        -0.914844      0.261484     -1.148931
Ti       9.50149      9.54342     10.91948         0.432640      0.836325      0.967871
O       2.02375      1.96874      0.43797        -0.402577     -0.193732      1.109508
O       1.83329      2.19342     13.72620        -0.296622     -0.899002     -1.030266
O       1.94915     13.57068      0.52519        -0.057376     -0.381878     -0.443271
O       1.90482     13.53356     13.57771         0.098215     -0.221737      1.663346
O      13.31994      1.75119      0.48438         0.106926      0.758551      0.551267
O      13.47876      2.04892     13.59488        -0.206783     -0.591592      1.117966
O      13.55254     13.32698      0.52914        -0.405182      0.092970      0.891995
O      13.58242     13.51387     13.56226        -0.218652     -0.331337      1.199393
O       1.80555      1.96006      4.88759         0.033659     -0.248891     -1.011579
O       1.99376     13.29816      4.86666        -0.673668      0.480572      1.207481
O      13.48446      1.90466      4.77683         0.134282     -0.000781      1.909314
O      13.53600     13.50644      4.74148        -0.385423     -0.329883      1.052329
O       1.90450      1.84508      9.24208        -0.064193      0.084440      0.552434
O       1.99337     13.50448      9.23909        -0.287204     -0.107185      0.671117
O      13.46976      1.99112      9.25858        -0.072750     -0.123451     -1.708735
O      13.40181     13.38104      9.26946         0.052821     -0.023882     -0.245667
O       1.87778      5.72845      0.57435        -0.037323      0.157579     -0.173554
O       1.89457      5.71718     13.55958        -0.194151      0.353036      1.823707
O      13.35903      5.84500      0.48995        -0.010341     -0.585640      1.710499
O      13.47386      5.66946     13.50718        -0.205974      0.314900      0.086913
O       1.98248      5.76867      4.78813        -0.104048     -0.315209      1.049807
O      13.33981      5.78383      4.86003         0.430009     -0.340941      2.043312
O       2.07063      5.70807      9.27550        -0.573396     -0.079119     -0.416415
O      13.44747      5.72392      9.28401        -0.171151      0.102672      0.853445
O       1.96965      9.46543      0.59307         0.114280      0.113143     -1.923804
O       1.95134      9.52147     13.55008         0.210096      0.346292      1.202542
O      13.58762      9.59446      0.50002        -0.467353     -0.261204      1.657056
O      13.42889      9.47497     13.51786        -0.101094      0.754863      0.690405
O       2.03962      9.56072      4.90838        -0.445130      0.198062      0.846951
O      13.45134      9.50696      4.88255        -0.065135      0.338013     -0.009444
O       1.93061      9.75823      9.29748        -0.302843     -0.172057      0.493658
O      13.54511      9.77984      9.22596        -0.204406     -0.250782     -0.271685
O       5.67554      1.99809      0.48910         0.521696     -0.176817      0.528620
O       5.86589      2.02624     13.52369         0.062133     -0.781084      0.892581
O       5.60010     13.54407      0.45397         0.479156     -0.349462      0.495100
O       5.90695     13.32450     13.69496        -0.143928      0.056277      0.158288
O       5.85209      1.84242      4.87248        -0.012259      0.478053      0.976490
O       5.80515     13.35918      4.84010        -0.409797      0.217553     -0.615482
O       5.51061      1.96234      9.35600         0.878129     -0.260726      0.951511
O       5.82958     13.57959      9.33301        -0.038867     -0.669659      0.171989
O       5.76192      5.78271      0.53868         0.354136      0.019882      0.362742
O       5.76401      5.76742     13.50831         0.307295     -0.172351      0.814400
O       5.67323      5.71002      4.98249         0.386128      0.214108      0.567592
O       5.51726      5.66781      9.30185         0.344998      0.122163      0.614788
O       5.91655      9.45315      0.55242        -0.443435      0.202019     -0.073901
O       5.68449      9.64309     13.63442         0.158465     -0.048179      0.469662
O       5.71968      9.68197      4.76046         0.234686      0.001320      0.387056
O       5.79085      9.72471      9.16550        -0.287985     -0.671548      1.224107
O       9.40087      1.94230      0.45822         0.572740      0.173519      1.362544
O       9.79085      1.86693     13.56775        -0.753385     -0.059627      1.062473
O       9.66994     13.50785      0.46483        -0.536659     -0.527270      0.318418
O       9.48702     13.22706     13.63479         0.266380      0.450503      0.634741
O       9.65087      1.91190      4.95872        -0.576944      0.079716      0.617200
O       9.69897     13.46310      4.80490        -0.103612     -0.344790      0.744193
O       9.63563      1.92432      9.24353         0.108883      0.158096      1.308014
O       9.54004     13.28195      9.21965         0.365938      0.464828      0.680426
O       9.66154      5.75480      0.49251        -0.108861     -0.331471      0.499399
O       9.56443      5.98508     13.49299        -0.227846     -0.484058      0.066025
O       9.74214      5.82403      4.96150        -0.693027     -0.669866      0.422345
O       9.64343      5.80478      9.32904         0.243058     -0.232719      0.301453
O       9.67414      9.57266      0.58044        -0.448748      0.380454      0.267640
O       9.66855      9.63586     13.53622        -0.025108     -0.383704      1.336640
O       9.73983      9.64277      4.63318        -0.346757      0.074252      2.422316
O       9.50454      9.55196      9.17060        -0.003891      0.142101     -0.759891
O       3.87970      1.89696      2.72963        -0.334255      0.244007      0.113287
O       3.78976      1.99651     15.79207         0.460574      0.011474     -0.248049
O       3.79778     13.49121      2.75255         0.225675      0.146419     -0.267729
O       3.89221     13.35099     15.66855        -0.491499      0.052496      0.189236
O       0.03833      1.89692      2.46068         0.012627      0.494422      0.707894
O      15.26142      1.81485     15.93285        -0.053386      0.417616     -0.517294
O      15.33928     13.40376      2.79862         0.927036      0.085372     -0.525244
O       0.04575     13.36233     15.86147         0.201833      0.452812     -0.522550
O       3.83543      1.92007      6.95740        -0.346318     -0.207894      0.229042
O       3.81210     13.40762      7.09277         0.544893      0.493764     -0.294982
O      15.35837      1.90114      7.05851        -0.833954     -0.309716      0.299005
O      15.30449     13.51625      7.02882         0.836062     -0.172489     -0.079855
O       3.80659      2.05141     11.50408         0.277234     -0.534718     -0.274792
O       3.86239     13.45723     11.51933        -0.054684     -0.213417     -0.178084
O      15.35086      1.89462     11.33505         0.185945     -0.078280      0.202990
O       0.00978     13.58146     11.48218         0.654978     -0.209083     -0.789049
O       3.85249      5.78756      2.67418         0.458504     -0.129419      0.036740
O       3.81638      5.73961     15.84823         0.116021      0.240114     -0.617412
O       0.01540      5.71779      2.74765        -0.341563      0.081274     -0.003359
O      15.33680      5.74041     15.75817        -0.022799      0.039108     -0.080507
O       3.81520      5.79570      7.08672        -0.677082     -0.428439      0.164102
O       0.06134      5.78710      7.05906        -0.572495     -0.278583     -0.076381
O       3.74886      5.57738     11.48877         1.421174      0.258028     -0.225539
O      15.27786      5.76943     11.49688         0.733622      0.070538     -0.465204
O       3.88259      9.56184      2.77878         0.330031      0.045404     -0.765048
O       3.86197      9.52513     15.86379         0.464680      0.102416     -0.183169
O       0.12719      9.55265      2.78939        -1.728317      0.143343     -0.166496
O      15.35731      9.54664     15.80627         0.671778      0.277083     -0.443567
O       3.80346      9.58721      7.00127         0.942892      0.303354      0.399336
O      15.34830      9.65549      7.02734         0.218513     -0.129554      0.155475
O       3.79250      9.63460     11.45740         0.523355      0.438692     -0.101295
O       0.00186      9.59604     11.47930         0.739811      0.465583     -0.154618
O       7.70615      1.95404      2.82846         0.372358      0.387717     -0.646489
O       7.62707      1.88857     15.75387         0.837657     -0.007828     -0.019345
O       7.60643     13.43186      2.59539         0.873360     -0.148403     -0.075692
O       7.76101     13.48739     15.91334        -1.569989     -0.548406     -0.119338
O       7.63551      1.94347      7.31027         0.601222     -0.468523     -0.970603
O       7.70401     13.31388      6.86682        -0.580608      0.609027      0.710934
O       7.80063      1.84186     11.56264        -0.739808      0.062634     -0.427815
O       7.66127     13.38881     11.50386         0.563551      0.311606     -0.032299
O       7.71890      5.65652      2.73385        -1.016285      0.276141      0.183301
O       7.71377      5.72346     15.68690        -0.206956     -0.157386      0.096614
O       7.60451      5.80767      7.32568         0.810130     -0.177316     -0.980167
O       7.64574      5.93681     11.26634        -0.335765     -0.643005      0.475780
O       7.75456      9.75518      2.76281        -1.100044     -0.599242     -0.228652
O       7.70604      9.60929     15.77217         0.086353     -0.221360     -0.008192
O       7.67476      9.61314      6.86413        -0.152042      0.141924      0.120183
O       7.58851      9.52225     11.35039        -0.132451     -0.096191      0.109874
O      11.56361      1.79812      2.74369        -1.394443      0.456823     -0.423617
O      11.49519      1.79866     15.79769         0.531095      0.883055      0.169049
O      11.46885     13.51419      2.59400         0.862067      0.033365      0.175788
O      11.58514     13.27397     15.83535        -0.569997      0.265456     -0.435502
O      11.50407      1.95286      7.02841         0.269209      0.081061      0.346605
O      11.53119     13.48575      7.00910         0.627207     -0.445277      0.202698
O      11.54135      1.92743     11.44531        -0.205361      0.354718     -0.171131
O      11.50228     13.43618     11.46401         0.800248     -0.775682     -0.324406
O      11.50520      5.85651      2.77154         0.522768     -0.568451     -0.388220
O      11.55297      5.82463     15.66141        -0.412902     -0.739568      0.026096
O      11.43743      5.89560      7.27774         0.790140     -1.255476     -0.969480
O      11.49543      5.74770     11.53740         0.152473      0.177046     -0.451682
O      11.50951      9.49297      2.70809         1.426428      0.738094     -0.383995
O      11.57504      9.64483     15.80332        -0.521533     -0.263223     -0.169899
O      11.52842      9.66278      6.98684         0.179106     -0.211386      0.169540
O      11.50383      9.70922     11.18178         0.256059     -0.324103      0.452387
O       2.04898      3.82212      2.76033        -0.805610      0.204750     -0.327824
O       1.82789      3.83570     15.93047        -0.146156      1.050568     -0.413870
O       2.05064      0.12679      2.64492        -0.858497     -1.920897      0.257615
O       2.02947      0.07751     15.70971        -0.552959     -2.132590      0.066728
O      13.45037      3.77635      2.64978        -0.303608      1.063385      0.072098
O      13.36431      3.83526     15.78970         0.326283     -0.643985     -0.092907
O      13.58894     15.35297      2.62198        -0.305057     -0.864939      0.322111
O      13.34494     15.27155     15.85087         0.723733      0.109942     -0.510276
O       1.88447      3.77218      7.02132         0.151217      0.788679     -0.006656
O       1.97776     15.31319      7.11246        -0.587717      0.058650     -0.346805
O      13.48255      3.82743      7.07600        -0.240224      0.400847     -0.088922
O      13.38693      0.02647      7.07012         0.311613     -0.281321      0.043091
O       1.85595      3.82928     11.54980        -0.615785     -0.775152     -1.020707
O       2.07876      0.07059     11.59000        -1.142837     -0.523543     -0.975658
O      13.45788      3.84349     11.51107        -0.379496     -0.228616     -0.661276
O      13.42277      0.06519     11.45220         0.174989     -0.622090     -0.497154
O       2.02441      7.68777      2.85284        -0.603878     -0.744047     -0.802128
O       1.97578      7.68491     15.88107        -0.530524     -0.376871     -0.691090
O      13.43482      7.65361      2.80422         0.539989      0.487900     -0.605623
O      13.45343      7.65230     15.67057         0.015793     -0.153792      0.258371
O       1.96262      7.63540      7.09545        -0.286486      0.288263      0.035625
O      13.53855      7.64644      7.14926        -0.486670      0.558624     -0.185308
O       2.02266      7.61824     11.36550        -0.594294      0.798609      0.106503
O      13.53625      7.79059     11.40490        -0.912348     -1.296092     -0.303851
O       2.02138     11.52319      2.70652        -0.623440      0.233932     -0.655535
O       1.99122     11.46766     15.81556         0.004466      0.298446     -0.353835
O      13.46666     11.49889      2.71973        -0.324741     -0.739233      0.126075
O      13.46721     11.44502     15.78521         0.446797      0.738561     -0.213697
O       2.02356     11.52583      7.20509        -1.236503      0.014543     -0.908282
O      13.46169     11.56757      7.03053        -0.172925     -0.261048     -0.438824
O       1.93122     11.64913     11.65181        -0.395515     -0.740395     -1.036337
O      13.54937     11.55485     11.60977        -0.222035     -0.113754     -0.993894
O       5.73471      3.79573      2.77622         0.242399      1.146280     -0.112887
O       5.72933      3.82698     15.76919         0.640154      0.574746     -0.079680
O       5.77083      0.04870      2.68882         0.186086     -0.544538      0.007334
O       5.65212      0.05012     15.77302         0.634290     -1.400238     -0.304823
O       5.82288      3.81385      7.14675        -0.545285      0.373732     -0.129183
O       5.85726      0.00906      7.07212        -0.579018     -0.564626     -0.064941
O       5.90360      3.76600     11.62909         0.035050      0.770007     -1.034814
O       5.79348     15.34053     11.59271        -0.238699      0.266541     -0.233586
O       5.80153      7.70383      2.82091         0.331937     -0.618843     -0.538955
O       5.90461      7.60367     15.63895        -0.557663      0.652929      0.461827
O       5.68776      7.73082      7.08089         0.171172      0.079160      0.008155
O       5.57611      7.60591     11.46493         0.360985      0.694007     -0.629093
O       5.67364     11.55070      2.48726         0.156992     -0.270008      0.219767
O       5.75590     11.43344     15.96767         0.450045      0.921525     -0.433989
O       5.71453     11.55357      7.08510        -0.159749     -0.554704     -0.431539
O       5.83031     11.49272     11.47913        -0.626420     -0.597131     -0.318161
O       9.68442      3.90618      2.80014        -0.092108     -1.729116     -0.290555
O       9.59945      3.79485     15.53663         0.154422      0.891556      0.571656
O       9.49823      0.00784      2.71241         0.384512      0.552929     -0.424322
O       9.64057     15.33957     15.80015        -0.331330     -0.494683     -0.162208
O       9.57034      3.82085      7.14320         0.051901      0.543090     -0.155423
O       9.61249     15.34166      7.00773        -0.199014     -0.079561      0.522099
O       9.52577      3.85807     11.53344         0.283946     -0.357612     -0.344545
O       9.68480     15.22878     11.35586        -0.325548      1.807307      0.218149
O       9.51049      7.60717      2.63947        -0.063607      1.493544      0.468410
O       9.67005      7.64168     15.90922        -0.448430      0.388661     -0.783029
O       9.59872      7.73003      6.90028        -0.074016     -0.201204      0.614268
O       9.55153      7.72067     11.35676         0.681387     -0.360228      0.263130
O       9.65915     11.61663      2.75024         0.106584     -0.397875     -0.476064
O       9.59201     11.41654     15.81635        -0.116657      1.146764      0.389345
O       9.59374     11.51297      6.94224         0.560486     -1.088785      0.061676
O       9.53899     11.43390     11.46078        -0.017702      0.341354     -0.159655
