  # total energy = -7880.11570564 
CRSYTAL
PRIMVEC
    15.2000000000000000    0.0000000000000000    0.0000000000000000
     0.0000000000000000   15.2000000000000000    0.0000000000000000
     0.0000000000000000    0.0000000000000000    17.000000000000000
PRESSURE
8.30109 8.29168 4.85144 0.364615 -0.08655 -0.019926
PRIMCOORD
320 1
Pb       3.71666      3.84261      4.19171         0.398660     -0.342961      0.294862
Pb       3.92828      3.92182      0.00008        -0.678926     -0.889027     -0.370997
Pb       3.67417      0.11970      4.33943         0.506933     -0.527555      0.089922
Pb       3.88619     15.16544      0.01801         0.406275      0.277475     -0.227577
Pb       0.00860      4.04413      4.28782        -0.114106     -0.858053     -0.088299
Pb      15.13732      3.66860      0.05213         0.530504      0.584076      0.051346
Pb       0.07076      0.16547      4.23484        -0.291470     -0.536930      0.446732
Pb      15.15556     15.13011     16.96428        -0.347210     -0.138089      0.104028
Pb       4.08658      3.60601      8.45306        -0.979592      0.843304      0.816403
Pb       3.79246     15.07881      8.66775        -0.128273     -0.017647     -0.774157
Pb       0.04909      3.77051      8.46298         0.014823      0.160442      0.078676
Pb      15.18809     15.06423      8.64150         0.129188      0.005509     -0.790795
Pb       3.74216      3.83409     12.75542        -0.005052     -0.307579     -0.373143
Pb       3.66880     15.17802     12.80241         0.107580     -0.248003      0.055127
Pb       0.00929      3.69167     12.69951         0.117646      0.330895     -0.078495
Pb       0.00208      0.05932     12.80567         0.141690     -0.267955     -0.423158
Pb       3.78755      7.48185      4.23277        -0.337785      0.419099      0.174761
Pb       3.90011      7.59569      0.15181        -0.471994      0.520635     -0.802549
Pb      15.16097      7.57218      4.12043         0.387860      0.650445      0.363539
Pb       0.00757      7.55372     16.87078         0.013502      0.228823      0.163732
Pb       3.83965      7.62600      8.38213        -0.268311      0.027422      0.816941
Pb      15.10884      7.48519      8.39441         0.432846      0.325227      0.113590
Pb       3.69422      7.50900     12.66427         0.056309      0.653636     -0.026169
Pb      15.12182      7.54071     12.60658         0.612647      0.007881      0.915858
Pb       3.59448     11.38263      4.26654         0.404310      0.391413     -0.078109
Pb       3.90900     11.33470      0.24497         0.098753     -0.019116     -0.573362
Pb      15.09318     11.44920      4.21811         0.098579      0.506623      0.531862
Pb       0.04848     11.42545      0.04039        -0.341815      0.326473     -0.536391
Pb       3.87922     11.37872      8.51468        -0.561115     -0.119500      0.036561
Pb      15.06619     11.29906      8.53340         0.469231      0.565649     -0.461268
Pb       3.59959     11.23115     12.91085        -0.021870      0.277421     -0.536502
Pb      15.12383     11.26571     12.72461         0.640509      0.683332      0.600765
Pb       7.43685      3.62250      4.13105         1.109002      0.576842      0.334454
Pb       7.56083      3.79319     16.94150         0.660072     -0.040028      0.496078
Pb       7.54276     15.13206      4.32325         0.050907     -0.090777     -0.784392
Pb       7.63095     15.08503      0.02417        -0.378434      0.229637     -0.020442
Pb       7.72741      3.79139      8.35927        -0.131200      0.019401      0.453723
Pb       7.61089     15.14065      8.37660        -0.139334     -0.340977      0.647305
Pb       7.50199      3.83612     12.74642         0.165714     -0.280978     -0.469670
Pb       7.64544      0.14483     12.69335        -0.159775     -0.398052     -0.314793
Pb       7.69976      7.44749      4.37403         0.026889      0.333384     -0.330872
Pb       7.46302      7.68999     16.90275         0.743819     -0.113209      0.146978
Pb       7.62124      7.63645      8.42973        -0.288268      0.096888      0.367833
Pb       7.56127      7.63772     12.80019        -0.009165     -0.055720     -0.687287
Pb       7.52091     11.17914      4.24293         0.191120      0.578936      0.080809
Pb       7.79133     11.46322     16.92363        -1.060221     -0.202548      0.401225
Pb       7.53380     11.46376      8.42608         0.191664     -0.120730      0.250427
Pb       7.50563     11.27742     12.68067        -0.079169      0.309753      0.084714
Pb      11.35225      3.77362      4.16780        -0.502809      0.171775      0.234543
Pb      11.40152      3.71894      0.02810        -0.554929      0.168163      0.242320
Pb      11.41879     15.14134      4.27052        -0.118908      0.503857     -0.003720
Pb      11.42446     15.00604     16.93503        -0.302178      0.999235      0.566420
Pb      11.43525      3.76233      8.46918        -0.371561      0.230781     -0.115916
Pb      11.35904      0.02172      8.35516        -0.222752     -0.211586      0.180943
Pb      11.32984      3.80616     12.79285         0.466871     -0.104856     -0.359226
Pb      11.44113      0.05082     12.68461        -0.154045     -0.009340      0.105144
Pb      11.45998      7.61881      4.15291        -0.383127     -0.376966      0.543590
Pb      11.24327      7.47638     16.89514         0.393785      0.541962     -0.088306
Pb      11.32585      7.54279      8.36400         0.234345      0.227150      0.684018
Pb      11.30162      7.52805     12.60158         0.272822     -0.029007      0.472341
Pb      11.37939     11.23001      4.26103         0.051407      0.654505      0.297592
Pb      11.40815     11.54340     16.88120         0.489383     -0.825911      0.071181
Pb      11.47007     11.44510      8.59346        -0.504078      0.009372     -0.641617
Pb      11.37361     11.38776     12.67956         0.255130      0.117878      1.049451
Ti       1.93609      1.92677      2.20898        -0.430171      0.435606      0.468019
Ti       1.89551      1.88108     15.07991         0.917025      1.016011      0.011276
Ti       1.88716     13.40079      2.16697        -0.232182     -0.459653      0.954230
Ti       1.92357     13.34760     15.11859        -0.848331     -1.516094     -1.038579
Ti      13.29455      2.00412      2.31747         0.277491     -1.300109     -0.749086
Ti      13.30037      1.94585     15.04226        -0.619423     -0.776189     -0.386336
Ti      13.22737     13.37214      2.32002         0.865591     -0.435061     -0.849393
Ti      13.24294     13.32387     14.91575         1.015274     -0.782834      0.374899
Ti       1.91067      1.92942      6.62052         0.469672     -1.160888      0.723513
Ti       1.81383     13.26745      6.56389        -0.501291      0.540516      0.998869
Ti      13.33368      1.92374      6.54839        -0.543484     -0.562693     -0.468821
Ti      13.20448     13.31488      6.44764         0.989527      0.121857      0.835909
Ti       1.93907      1.83844     10.70785        -0.495561      0.981726     -0.300745
Ti       1.77257     13.23224     10.80173         1.083709     -0.103584     -0.317451
Ti      13.26634      1.88823     10.65547         0.970229     -0.060765      1.997078
Ti      13.21475     13.30222     10.79170         0.445248      0.354174     -0.555338
Ti       1.89166      5.69056      2.17647        -0.496271      0.613011      1.669739
Ti       1.94213      5.69349     14.95518        -0.305189     -0.123926      0.439772
Ti      13.26930      5.75774      2.18700        -0.334208     -0.266333      0.015298
Ti      13.37918      5.64304     14.99753        -0.623379      1.353796     -1.427670
Ti       1.96465      5.67552      6.51764        -0.025690      1.289217      0.805526
Ti      13.28254      5.67949      6.43101         0.354843      0.447811      0.306598
Ti       1.88780      5.63870     10.61721         0.589464      0.575405      0.751080
Ti      13.35530      5.65330     10.73138        -1.187452     -0.959644      0.494187
Ti       1.82776      9.64792      2.31698         0.073532     -1.115062     -0.425728
Ti       1.87240      9.54045     15.10847         0.608494      0.001160     -0.051602
Ti      13.26122      9.57347      2.12067        -0.215421      0.057916      0.018119
Ti      13.32835      9.51280     14.96610        -0.712563     -0.112951      0.649570
Ti       1.85138      9.53302      6.47469        -0.222277     -0.539742     -0.169148
Ti      13.25471      9.49613      6.51705        -0.062325      0.323325      2.137238
Ti       1.86920      9.46266     10.61885         0.985670      0.352772      1.467394
Ti      13.27414      9.46383     10.77734         0.414538      0.157205     -0.460497
Ti       5.66349      1.82306      2.21057         0.691188     -0.138364      0.329773
Ti       5.74637      1.87419     14.97663        -1.266437     -0.325329      0.593632
Ti       5.66207     13.29693      2.32750         0.464682     -0.412504     -0.385941
Ti       5.64865     13.28593     14.90036        -0.323149      0.456370      1.726715
Ti       5.75365      1.81921      6.49103        -1.299348     -0.252281      0.457297
Ti       5.57274     13.20730      6.38472         0.382937      0.757929     -0.530922
Ti       5.66341      1.86431     10.79582         0.810607      0.624021     -0.446728
Ti       5.58113     13.28378     10.89705         0.069682     -0.178697     -0.296816
Ti       5.72591      5.72459      2.26397         0.525272     -0.402834      2.040105
Ti       5.70349      5.68778     14.90671        -0.041115      0.192921      0.436259
Ti       5.77502      5.68117      6.51771        -0.573211      0.212100     -0.625922
Ti       5.71655      5.72369     10.78152        -0.110886     -0.094300      0.145402
Ti       5.67074      9.47497      2.35017         0.020847      0.283596     -0.453663
Ti       5.62456      9.54516     15.00477        -0.364298     -0.244475      0.039071
Ti       5.63537      9.45589      6.38783         0.021910     -0.181933      0.241237
Ti       5.63246      9.51310     10.72886        -0.073262     -0.831699      0.414679
Ti       9.54718      1.79879      2.26951        -0.754659      1.484446      1.102559
Ti       9.51103      1.90803     14.97391        -0.060779     -0.008714      0.220983
Ti       9.48389     13.27322      2.28848        -1.429602      0.172998      0.059097
Ti       9.41430     13.33171     14.88756        -0.152655      0.496003     -0.344815
Ti       9.47955      1.87305      6.38068         0.842190      0.378809     -0.805034
Ti       9.43277     13.24140      6.35634        -0.520150     -0.206399      0.836457
Ti       9.49490      1.93350     10.67055        -0.649289     -0.829060     -0.310826
Ti       9.39614     13.24031     10.82271         0.002214      1.257752     -1.154682
Ti       9.46078      5.70931      2.23394         0.516973     -0.716845      0.202028
Ti       9.49008      5.70711     14.92933         0.047251      0.456252      1.364800
Ti       9.56474      5.67890      6.45585        -0.699981     -0.579792     -1.281018
Ti       9.50493      5.65309     10.73841        -0.170023      0.269147     -0.393898
Ti       9.48941      9.47837      2.26454        -1.233938     -0.641220     -0.490401
Ti       9.48524      9.55321     14.95178         0.678904     -0.689098      0.010159
Ti       9.47478      9.50807      6.53129        -0.274199     -0.014328     -0.713157
Ti       9.50651      9.55167     10.70133        -0.820512     -1.344150     -0.824764
O       1.89356      1.94150      0.47887        -0.104983     -0.045172     -0.689155
O       1.94948      1.89390     13.28519        -0.506598      0.004926     -0.379622
O       1.88902     13.32867      0.40220         0.007112      0.194916     -0.292427
O       1.83408     13.36310     13.33018         0.097648      0.222110     -0.840067
O      13.25711      2.01334      0.51332         0.149465     -0.250432     -0.244338
O      13.34724      1.95965     13.26641         0.018194     -0.266011     -0.259806
O      13.21360     13.32064      0.50025        -0.312138     -0.134630     -0.010216
O      13.16324     13.30432     13.15974         0.514440      0.374030     -0.414278
O       1.96309      1.75779      4.86786        -0.089547      0.587324     -1.230075
O       1.83117     13.34630      4.83677         0.043210     -0.001721     -1.423918
O      13.23994      1.92596      4.79915         0.266644     -0.101965     -1.194625
O      13.21762     13.31577      4.70058         0.015391      0.141825     -1.090611
O       1.86792      1.93353      8.93148         0.170133     -0.061699     -0.020150
O       1.91090     13.24759      9.01743        -0.281017      0.147569     -0.161587
O      13.28184      1.77642      8.94282        -0.137204      0.351274     -1.813643
O      13.18312     13.28624      8.94102        -0.177598      0.024442      0.873198
O       1.91512      5.52774      0.49768         0.089513      0.590991     -1.692944
O       1.86508      5.60064     13.18486         0.169341      0.350044      0.033242
O      13.34575      5.74071      0.43539        -0.226471     -0.042298     -0.881043
O      13.36647      5.65717     13.17258        -0.162735     -0.245624      0.454785
O       1.87873      5.71995      4.73515         0.083647     -0.224929     -0.579588
O      13.36466      5.71174      4.65941        -0.327216      0.056377     -0.211855
O       1.80318      5.83444      8.87500        -0.073420     -0.593980     -0.454343
O      13.34553      5.70705      8.99723        -0.081890     -0.158830     -1.558440
O       1.86147      9.71301      0.53949        -0.289501     -0.232465     -0.152293
O       1.85398      9.45149     13.33807         0.230008      0.334273     -0.668566
O      13.19920      9.58908      0.35893         0.356232     -0.081311      0.270691
O      13.46677      9.57349     13.18756        -0.599283     -0.444313     -0.487618
O       1.79408      9.52028      4.66969         0.358498      0.358895     -0.334565
O      13.13698      9.46422      4.84786         0.112567      0.224547     -3.102836
O       1.87954      9.53997      8.90703        -0.378605     -0.088238     -1.098838
O      13.27832      9.54150      8.98383        -0.136582      0.110344      0.303941
O       5.64787      1.83963      0.46707         0.053410      0.136131     -0.666624
O       5.66885      1.94362     13.21792         0.233442     -0.221337     -0.552657
O       5.66346     13.32042      0.52801        -0.109634      0.003128     -0.446338
O       5.58407     13.35868     13.18242         0.352004     -0.243348     -1.473609
O       5.59850      1.87555      4.75944         0.235437      0.096275     -1.028839
O       5.68049     13.23477      4.60144        -0.126819      0.060256      0.591594
O       5.66193      1.87570      8.99303         0.223455     -0.073959     -0.383997
O       5.54675     13.30245      9.08804         0.206635     -0.166606     -0.232027
O       5.68748      5.73458      0.55138        -0.074304      0.051871     -1.864529
O       5.71988      5.63584     13.14351        -0.096071      0.281661     -0.004661
O       5.76576      5.69352      4.71638        -0.517442     -0.045454      0.133097
O       5.69117      5.76703      9.02534         0.505980     -0.183558     -0.854094
O       5.61960      9.38004      0.52070         0.124188      0.333161     -0.421275
O       5.45321      9.51308     13.23139         0.811950      0.020912      0.351822
O       5.61434      9.33679      4.61544        -0.159642      0.551148     -0.236965
O       5.62277      9.47985      8.98633         0.313831      0.028360     -1.270444
O       9.63691      1.97219      0.55566        -0.290381     -0.288979     -1.796201
O       9.57428      1.94566     13.19019        -0.455107     -0.421261      0.010001
O       9.40795     13.28363      0.45656         0.287432     -0.035252     -0.153676
O       9.36402     13.29895     13.13436         0.311571      0.377413     -0.479451
O       9.49275      1.85712      4.58130        -0.006394      0.123330      0.529397
O       9.25881     13.29222      4.61032         0.548436     -0.247927     -0.400520
O       9.55550      1.93527      8.86081        -0.240135      0.226204      0.430203
O       9.35352     13.19744      9.02175         0.490878     -0.081660     -0.264354
O       9.51769      5.72345      0.46482        -0.046730      0.481344     -0.953943
O       9.50066      5.79008     13.16681         0.047446     -0.195000     -0.427937
O       9.45326      5.65905      4.67457         0.366812      0.253561      0.398032
O       9.51695      5.61676      8.95281        -0.053018     -0.223980     -0.563213
O       9.39926      9.43473      0.45432         0.265246      0.285736      0.644109
O       9.47831      9.43082     13.20593        -0.053449     -0.004559     -1.540887
O       9.38776      9.47617      4.70587         0.433007      0.293123      0.191494
O       9.47079      9.53607      8.89905         0.121149      0.137943      0.391841
O       3.81076      1.93270      2.70537        -1.001692      0.482793     -0.220134
O       3.76164      1.98909     15.42164         0.527171     -0.590110     -0.127178
O       3.72256     13.12856      2.60867        -0.296125      0.368486     -0.100559
O       3.77824     13.50624     15.26875         0.624518     -0.207105      0.439884
O       0.00283      1.88546      2.67596        -0.049737     -0.200837     -0.269587
O      15.14636      1.90728     15.45609         0.323817      0.047686     -0.145496
O      15.14076     13.45909      2.52001         0.341455      0.018815      0.292080
O      15.14004     13.25039     15.35186        -0.295072      0.691804      0.361787
O       3.88750      1.83261      6.95719        -0.739700      0.359334     -0.150660
O       3.69897     13.19000      6.88245         1.328263      0.363609     -0.012842
O      15.18943      1.88503      6.81592         0.025774      0.542830      0.428181
O      15.13178     13.34798      6.91348        -0.237806     -0.254822      0.172692
O       3.82097      1.91997     11.13584        -0.852067     -0.183868      0.051420
O       3.70064     13.38470     11.18449         0.550171     -0.034111      0.061458
O       0.05024      1.89588     11.08129        -0.510364     -0.014323      0.225056
O      15.13246     13.29930     11.05885         0.056366      0.048470      0.263233
O       3.75410      5.62039      2.63665         0.266832      0.083368     -0.150759
O       3.82092      5.76039     15.30637         0.238407     -0.638217      0.293930
O      15.14984      5.73053      2.50754         0.827586      0.098378      0.611879
O       0.04274      5.73950     15.30770        -0.112851     -0.254958      0.368962
O       3.82105      5.81254      6.95609         0.200226     -0.913222     -0.983866
O      15.16976      5.64615      6.76149         0.202596      0.256738      0.391963
O       3.78071      5.64954     11.07215        -0.337212      0.270750      0.095376
O      15.18757      5.70170     11.06333         0.907613     -0.208724     -0.047462
O       3.72343      9.71941      2.49823        -0.255177     -0.158066      0.561197
O       3.77247      9.59070     15.44358         0.820066     -0.289397      0.364278
O      15.01152      9.64777      2.79647         1.452426     -0.959478     -0.998213
O       0.02736      9.59858     15.44211        -1.064253      0.025057      0.202602
O       3.75421      9.50975      6.90961         0.585819     -0.026750     -0.650223
O      15.12074      9.59348      6.84857         0.354448     -0.593269      0.148609
O       3.80247      9.45680     11.05503        -1.848410     -0.020476      0.296691
O       0.00531      9.50839     11.16310        -0.548263     -0.126348     -0.731544
O       7.57276      1.86238      2.56234        -0.406115     -0.481501      0.080475
O       7.60490      1.86779     15.30862         0.502120      0.478239      0.209108
O       7.56040     13.53744      2.51357         0.057083     -0.549956      0.272156
O       7.52130     13.42058     15.21471         1.044896     -0.427895      0.607017
O       7.62246      1.97307      6.75378        -0.532226     -0.481076      0.392577
O       7.51411     13.25007      6.89020        -0.225970      0.048759     -0.279737
O       7.56414      1.95361     11.01472         0.899649     -0.068975      0.577885
O       7.56388     13.16881     11.06488        -0.967856     -0.248430      0.697479
O       7.62646      5.82025      2.58320        -1.743015      0.011915      0.001145
O       7.57718      5.76255     15.29486         0.133406     -0.283581      0.046496
O       7.66249      5.70541      6.82056        -0.761902      0.193861      0.422657
O       7.66054      5.70063     11.17833        -0.934331      0.147339     -0.022706
O       7.50618      9.33936      2.65749         1.244370     -0.089042     -0.129991
O       7.57083      9.51246     15.20910        -0.831550      0.247494      0.422185
O       7.52650      9.44540      6.86137         0.309411      0.111593     -0.103973
O       7.58024      9.48689     11.03359         0.508668      0.198330      0.571576
O      11.42880      1.96008      2.58421        -0.568250      0.187791      0.601071
O      11.38364      1.94916     15.20397         0.109058      0.173253      0.759916
O      11.30866     13.16471      2.60591        -0.025943      0.213190      0.304806
O      11.30623     13.26852     15.26470         0.237405      0.391088      0.268579
O      11.34157      1.96051      6.71325         0.417920     -0.577909      0.820744
O      11.28552     13.35216      6.73106         0.179088     -0.277928      0.266647
O      11.41593      1.82561     11.05663        -0.542034      0.171826      0.071366
O      11.36121     13.31396     11.19405        -0.108485      0.153968     -0.400809
O      11.42113      5.72400      2.48153        -0.095998     -0.090992      0.494898
O      11.39307      5.78246     15.18171        -0.092796      0.044544      0.461189
O      11.40625      5.63550      6.79923         0.295937      0.357085      0.389156
O      11.38422      5.55283     11.04570         0.171863      0.325631      0.558059
O      11.35274      9.56037      2.64625         0.120541      0.011541     -0.329165
O      11.42847      9.54684     15.22439        -0.387685     -0.152845      0.249293
O      11.32909      9.52417      6.82533         0.257668      0.138888      0.535027
O      11.41981      9.62765     11.09669        -0.079688     -0.964961     -0.033802
O       1.74025      3.79553      2.67416         0.802601      0.168729     -0.018565
O       1.90552      3.83530     15.45112        -0.256043     -0.106084     -0.387640
O       1.96686      0.06085      2.60871        -0.120914     -0.421811      0.106988
O       1.78477      0.02417     15.34981        -0.021768      0.608814      0.563018
O      13.26912      3.81735      2.63036         0.425970      0.917720      0.053352
O      13.23863      3.81742     15.39062         0.388168     -0.100781      0.093801
O      13.06422      0.00696      2.55841         0.456916      0.612763      0.461260
O      13.18412     15.18233     15.38992         0.496353      0.617357     -0.181492
O       1.93223      3.83500      6.87276         0.008179     -0.274169      0.043942
O       1.87886      0.05624      6.94614         0.137810     -1.109567      0.415069
O      13.21693      3.84097      6.89694         0.605150     -0.555473      0.085504
O      13.23741     15.19870      6.85255        -0.136919      0.272822      0.099873
O       1.89570      3.80029     11.06749        -0.101613     -0.175454     -0.066619
O       1.89227     15.19557     11.02220        -0.188500     -0.042975      0.492856
O      13.31121      3.73750     10.99725         0.081954      0.006817      0.277993
O      13.41230     15.19950     11.13395        -0.718885      0.056636      0.150944
O       1.90215      7.69790      2.47685        -0.256052     -0.831043      0.287171
O       1.94874      7.66344     15.40522        -0.294727     -1.243883      0.421767
O      13.27995      7.67921      2.59617        -0.065529     -0.130461     -0.329799
O      13.40227      7.59870     15.24580        -0.165238      0.333464      0.334626
O       1.90668      7.65045      6.72594        -0.555360     -0.772133      0.523088
O      13.22240      7.61015      6.90481         0.189748     -0.920985     -0.208393
O       1.91426      7.63480     11.05112        -0.380115     -1.144395      0.063594
O      13.26384      7.51743     11.00263        -0.179704      1.772059      0.484747
O       1.72672     11.53587      2.62788        -0.211470     -0.399082      0.328937
O       1.95851     11.45716     15.36912        -0.095279     -0.002737      0.362963
O      13.27426     11.45550      2.63843        -0.409596     -0.606982      0.075872
O      13.23134     11.47471     15.31279         0.109595     -0.685311      0.140076
O       1.84770     11.33835      6.90194        -0.113881      1.232674     -0.050940
O      13.24278     11.44882      6.79092        -0.370605     -0.290074      0.560564
O       1.91645     11.37824     11.15430        -0.187694     -0.400707      0.006443
O      13.30881     11.42709     11.14503        -0.153928     -0.575315     -0.379320
O       5.73321      3.75253      2.55458        -0.439278      0.834480      0.018259
O       5.75424      3.77544     15.42032        -0.268462      0.889212     -0.263458
O       5.51197     15.13890      2.57751        -0.102559      1.315009      0.409273
O       5.74038      0.03511     15.41568        -0.492084     -0.246859     -0.179202
O       5.71086      3.79949      6.82874         0.153418      0.023685      0.105680
O       5.65034     15.10588      6.71208         0.353916      0.236752      0.480901
O       5.69728      3.81263     11.15895         0.031307      0.013910     -0.076583
O       5.80467      0.02122     11.09770        -0.443579     -0.762033      0.387949
O       5.51166      7.59614      2.59376        -0.294288     -0.782506     -0.030453
O       5.65928      7.55657     15.33549        -0.016406      0.824852      0.047200
O       5.70447      7.60071      6.77548         0.008661     -0.440786      0.471733
O       5.63518      7.60909     11.15003         0.531614     -0.484395      0.355967
O       5.76907     11.37388      2.59706         0.080581     -0.161842      0.071972
O       5.67295     11.46211     15.43134         0.044817     -0.485232     -0.365755
O       5.65770     11.31715      6.67855         0.038219      0.844509      0.518469
O       5.52367     11.32962     11.14624         0.656414      1.486896      0.319050
O       9.39058      3.86648      2.57478         0.481092     -0.981808      0.266351
O       9.49114      3.87265     15.48144        -0.089924     -0.617713     -0.859034
O       9.47732      0.00654      2.68017         0.706383     -0.958654     -0.304324
O       9.51993      0.04171     15.44147        -0.114074     -0.343375     -0.612336
O       9.49005      3.78297      6.67409        -0.042390     -0.039749      0.787304
O       9.37659     15.15768      6.74146         0.136676      0.233329      0.173037
O       9.41631      3.73316     11.21257         0.643887      0.625165     -0.379372
O       9.36926     15.18288     10.91019         0.316830      0.546959      0.877768
O       9.57283      7.54840      2.79404        -0.206418      1.468131     -0.843605
O       9.41941      7.71487     15.33030         0.363143     -1.920967      0.181104
O       9.54402      7.58355      6.76761        -0.272402     -0.018042      0.502349
O       9.53127      7.57745     10.91398         0.387559      0.597907      0.708602
O       9.22401     11.37567      2.51066         0.436079     -0.469590      0.237084
O       9.45258     11.44144     15.15598        -0.296335      0.404479      0.852175
O       9.39974     11.37645      6.77425         0.117370      0.518130      0.153018
O       9.56683     11.36203     11.14385        -0.512015      0.024662      0.089369
