  # total energy = -7879.27225030 
CRSYTAL
PRIMVEC
    15.3600000000000000    0.0000000000000000    0.0000000000000000
     0.0000000000000000   15.3600000000000000    0.0000000000000000
     0.0000000000000000    0.0000000000000000    17.440000000000000
PRESSURE
0.502766 -0.049187 -6.38712 0.017612 0.049968 -0.030628
PRIMCOORD
320 1
Pb       3.80321      3.84278      4.43120        -0.145391     -0.374128     -0.409604
Pb       3.96392      3.75109     17.36802        -0.515341      0.552410      0.077896
Pb       3.78447     15.30309      4.39844         0.017973      0.413108     -0.450476
Pb       3.88123      0.02036     17.39164        -0.208831     -0.235463     -0.091962
Pb      15.35925      3.81015      4.45355         0.178200     -0.269533     -0.697167
Pb       0.16135      3.86053      0.07471        -0.358922      0.109989     -0.046756
Pb       0.06663     15.28666      4.33830        -0.233669     -0.233739     -0.450064
Pb      15.09151     15.27401      0.02666         0.310563      0.075739      0.297753
Pb       3.72851      3.96849      8.58456         0.196454     -0.245986      0.616551
Pb       3.83263     15.35261      8.84565        -0.048289     -0.230135     -0.337820
Pb      15.03920      3.96180      8.64190         0.846718     -0.112102     -0.024428
Pb      15.24866      0.18563      8.73298         0.051175     -0.696152     -0.235652
Pb       3.86947      3.74903     12.93096        -0.454703     -0.079958      0.336613
Pb       3.71673     15.22321     12.91913         0.473379      0.643530      0.188906
Pb       0.00586      3.65754     13.14432         0.025307      0.620366     -0.343787
Pb       0.03589      0.00487     12.93175        -0.192724      0.064911      0.115263
Pb       3.93407      7.66708      4.26898        -0.629369     -0.053705      0.140257
Pb       3.66432      7.61772      0.03436         0.497258     -0.157244     -0.372918
Pb       0.22683      7.71389      4.31605        -0.566121      0.250253     -0.018406
Pb      15.27166      7.77335     17.35076         0.318754     -0.241052     -0.000629
Pb       3.96816      7.63965      8.74481        -0.657791     -0.054795     -0.718271
Pb      15.33890      7.63541      8.69819         0.504050      0.107068     -0.047511
Pb       3.80031      7.61393     13.06290         0.053116      0.124541     -0.019838
Pb       0.08445      7.68035     13.14547        -0.389808     -0.336518     -0.168922
Pb       3.61392     11.49461      4.31613         0.900297     -0.078532     -0.074346
Pb       4.02310     11.31060     17.32035        -0.606760      0.398126      0.131214
Pb       0.15973     11.67316      4.18163        -1.092434     -0.346390      0.628998
Pb      15.23192     11.48066     17.30198         0.159495     -0.384978      0.198663
Pb       3.78234     11.60169      8.72647         0.147459     -0.325302      0.273636
Pb      15.32849     11.34324      8.70010        -0.330381      0.406703      0.096036
Pb       3.96432     11.47619     12.96801        -0.534823     -0.219864      0.168491
Pb       0.16022     11.48093     13.16989        -0.346996     -0.343547     -0.772046
Pb       7.71148      3.70642      4.42628        -0.254784     -0.321367     -0.230045
Pb       7.66271      3.88632     17.32811        -0.230900      0.151382      0.290254
Pb       7.70307      0.01609      4.37909         0.187136     -0.150351     -0.249367
Pb       7.38662     15.31726     17.33862         1.045860      0.136967      0.441639
Pb       7.65262      3.81839      8.70332         0.163031      0.516869     -0.161604
Pb       7.67149     15.25844      8.58291         0.298997     -0.154260      0.664210
Pb       7.84028      4.00686     13.28575        -0.236706     -0.190409     -1.008220
Pb       7.66086      0.17327     13.03294        -0.022583     -0.315194     -0.544647
Pb       7.55760      7.47727      4.26544         0.576430      0.949281      0.363322
Pb       7.60116      7.65411      0.00203        -0.254756      0.279262     -0.177698
Pb       7.59486      7.88110      8.64313         0.244935     -0.978817     -0.025799
Pb       7.60043      7.61020     12.96358         0.005831      0.286786      0.414875
Pb       7.71026     11.37466      4.39105        -0.250037      0.403779      0.061390
Pb       7.51944     11.65043     17.33630         0.677969     -0.913407      0.266376
Pb       7.68656     11.49026      8.69404         0.399177      0.170083     -0.262647
Pb       7.87240     11.63356     13.06170        -0.435177     -0.239086     -0.298710
Pb      11.56795      3.75536      4.37013        -0.232665     -0.265562     -0.144150
Pb      11.58175      3.81033      0.07318        -0.031321      0.102811     -0.211190
Pb      11.59240     15.31720      4.28705        -0.413058      0.112034     -0.081899
Pb      11.37095     15.26407     17.27297         0.498837      0.127257      0.570494
Pb      11.55270      4.07593      8.70486        -0.591928     -0.343155     -0.572275
Pb      11.45496     15.28173      8.64853         0.259800     -0.053913      0.098816
Pb      11.55583      3.68136     13.32338         0.292386      0.488941     -0.670392
Pb      11.43941     15.33477     13.05757        -0.112157     -0.293250     -0.111875
Pb      11.56829      7.68451      4.20637        -0.136696      0.498563      0.186503
Pb      11.42105      7.58218      0.03392         0.229240     -0.069647      0.230078
Pb      11.56039      7.69441      8.66610        -0.267833     -0.134694     -0.227637
Pb      11.38184      7.69488     13.04080         0.622345      0.017804      0.318030
Pb      11.57183     11.37389      4.39928         0.201340     -0.072975     -0.267032
Pb      11.33904     11.48760     17.35160         0.049971      0.068902      0.270622
Pb      11.51332     11.52458      8.86775         0.108794      0.035147     -1.097923
Pb      11.46084     11.42876     12.97532         0.584958      0.555398      0.179133
Ti       1.85529      1.88413      2.37177         0.100667      0.132250     -0.354260
Ti       1.75596      1.79097     15.51273         0.916361      1.001504     -2.145775
Ti       1.99826     13.42236      2.11169        -0.949557      0.297452      0.508367
Ti       1.89215     13.39532     15.42058         0.427364     -0.390010      0.009934
Ti      13.34730      1.88551      2.21692         0.746449     -0.474943     -0.129873
Ti      13.39257      1.86368     15.42799        -0.776849      0.434989      0.335265
Ti      13.32223     13.42376      2.25214         0.954033     -0.203701     -0.548937
Ti      13.41466     13.33450     15.34774        -1.451826      0.001787     -1.132391
Ti       1.84786      1.91059      6.77013        -0.252881     -0.215729     -1.365935
Ti       1.88670     13.46629      6.81533        -1.106408      0.275787     -0.808061
Ti      13.29003      1.83923      6.61537         0.663779      0.746010     -0.708299
Ti      13.48988     13.39212      6.69246         0.185697     -0.741282     -0.893779
Ti       1.83721      1.89470     10.97204         0.359063      0.272628     -0.868431
Ti       1.85046     13.37006     10.98296        -0.003531     -0.528994     -1.498276
Ti      13.25874      1.95092     10.99106         1.520888      0.424313     -1.092800
Ti      13.41011     13.49938     11.02258         0.149386     -1.179537     -1.963737
Ti       1.96078      5.73615      2.33154        -0.209214     -0.761855     -1.195402
Ti       1.94109      5.69624     15.43237        -0.032373      0.018818     -0.889824
Ti      13.46800      5.71632      2.36717         0.677161      0.339929     -0.961982
Ti      13.44980      5.72967     15.54530         0.071946     -0.374183     -1.958698
Ti       1.91866      5.75011      6.71238        -0.241252      1.216500     -0.724220
Ti      13.40722      5.76850      6.45501         0.138735     -0.257591     -0.511420
Ti       1.84128      5.67029     11.08282        -0.859818      0.509075     -1.406505
Ti      13.31263      5.82281     11.16689         1.465719     -0.520098     -0.040468
Ti       1.86724      9.58023      2.14903         0.601191     -0.032254     -0.700894
Ti       1.97568      9.58629     15.35909        -0.482881     -0.528279     -0.759297
Ti      13.43972      9.64582      2.25502        -0.241290     -0.334723     -0.035612
Ti      13.34417      9.55399     15.32572         1.023600      0.369585     -1.030893
Ti       1.88409      9.61546      6.72800        -0.183445     -1.327149     -1.101684
Ti      13.40404      9.49451      6.70026         0.423169      0.998291     -2.104631
Ti       1.89851      9.51320     11.07663         0.283878      0.142621     -1.403081
Ti      13.43969      9.62626     11.10771         0.562193     -0.024033     -0.925453
Ti       5.71218      1.98586      2.33007        -0.412766     -0.631368     -0.686052
Ti       5.65435      1.93127     15.24790         0.188476      0.223081     -0.098158
Ti       5.77426     13.47997      2.36932        -0.168771      0.187837     -0.742111
Ti       5.69127     13.43244     15.27813         0.968970     -0.203077     -1.367897
Ti       5.71852      1.84231      6.78251         0.304041      0.308656     -1.649855
Ti       5.76565     13.37070      6.76341         0.755500     -0.470910     -1.106274
Ti       5.78453      1.93226     10.93114         0.164285     -0.648956      0.714114
Ti       5.81365     13.42117     11.07724         0.113338      0.741666     -1.221610
Ti       5.76491      5.70672      2.37748        -0.797774     -0.231155     -1.890418
Ti       5.75412      5.80744     15.30670        -0.315482      0.117879     -0.551814
Ti       5.78940      5.66745      6.60149        -0.350008      0.777980      0.237884
Ti       5.66305      5.71731     10.97780         1.084973      0.039056     -0.975744
Ti       5.70747      9.68355      2.32184         0.516027     -0.739070     -1.938335
Ti       5.78141      9.52170     15.33344         0.438274     -0.152221     -1.069456
Ti       5.63068      9.64948      6.70360         1.666843     -0.296252     -1.379329
Ti       5.76447      9.58231     11.02721        -0.494649     -0.125679      0.110000
Ti       9.50205      1.84528      2.05828         0.461273      0.032021      0.540269
Ti       9.46285      1.90189     15.41323         1.033943     -0.512298     -0.593616
Ti       9.55893     13.38743      2.30686        -0.413600     -0.119955     -0.137025
Ti       9.55225     13.43676     15.29584         0.465967      0.139187     -0.825961
Ti       9.56091      1.93319      6.76799         0.456379      0.132038     -0.859250
Ti       9.70150     13.40437      6.62063        -0.942748     -0.559500     -0.022427
Ti       9.55437      1.98529     10.90761        -0.073005     -0.436074     -0.542936
Ti       9.62702     13.50284     10.89750        -0.075168     -0.287722      0.071763
Ti       9.62469      5.60489      2.45584         0.243051      0.599069     -1.509135
Ti       9.63745      5.75111     15.39665        -0.058891      0.599250     -0.116993
Ti       9.53515      5.81499      6.61447         0.491940     -0.253284     -0.406927
Ti       9.62439      5.70738     11.07983        -0.809976      0.199761     -1.907891
Ti       9.49781      9.53472      2.28837         0.639835      0.980869     -0.835238
Ti       9.61198      9.53315     15.39000        -1.525200      0.553561     -0.137425
Ti       9.58327      9.52783      6.65388        -0.087768      0.980879     -0.533595
Ti       9.51134      9.57221     11.06783         0.675407      0.431189     -1.372027
O       1.82601      1.95507      0.56194         0.349664     -0.234677      0.312364
O       1.70172      1.88256     13.56897         0.062263     -0.316846      2.067774
O       2.01384     13.45877      0.34979         0.037639     -0.165956      0.070174
O       1.91645     13.35742     13.61572         0.016940      0.260868      0.816005
O      13.38149      1.74401      0.39802         0.047143      0.280231      0.889133
O      13.45182      1.99647     13.61799        -0.211882     -0.264941      0.461869
O      13.35338     13.52018      0.39462         0.170833     -0.695209      1.281143
O      13.17609     13.23741     13.54761         0.855977      0.577673      1.231565
O       1.83232      1.82618      4.88911         0.272134      0.003922      1.687425
O       1.67736     13.57051      4.94648         1.101051     -0.381006      1.683044
O      13.18724      1.95523      4.77724         0.394526     -0.308658      1.245844
O      13.51327     13.37894      4.82661        -0.104888      0.147250      1.397565
O       1.81897      1.93086      9.13339         0.179573     -0.099451      1.310830
O       1.88798     13.47188      9.16464         0.190413     -0.295893      0.840607
O      13.37669      1.99554      9.13380        -0.014989     -0.202373      1.473111
O      13.36296     13.50305      9.10431         0.103244     -0.129864      2.280261
O       2.09290      5.73642      0.47226        -0.637809     -0.290214      1.304236
O       1.92549      5.68702     13.59658         0.046778      0.003051      1.507237
O      13.41193      5.68643      0.50720        -0.118411      0.193230      1.259663
O      13.29308      5.72542     13.68269         0.243078     -0.355893      1.497155
O       1.97744      5.85146      4.87652        -0.186893     -0.086682      0.935314
O      13.49394      5.64393      4.65872        -0.335360      0.380010      0.533699
O       1.83817      5.66000      9.13528         0.199727      0.096602      2.248025
O      13.39177      5.77594      9.31601        -0.323968      0.059797      1.076649
O       1.93550      9.57855      0.29874        -0.132145      0.131218      1.780832
O       1.90173      9.63161     13.48736         0.358214     -0.211302      1.619309
O      13.40939      9.72257      0.43107         0.204798     -0.292866      1.213139
O      13.42891      9.69314     13.48448        -0.221542     -0.247705      1.469068
O       1.90785      9.49043      4.83626         0.393521      0.195526      1.670004
O      13.44051      9.54498      4.81423        -0.257098      0.029836      1.863165
O       1.80743      9.48927      9.20778         0.278135      0.128699      1.205835
O      13.55135      9.56787      9.18027        -0.337527     -0.460539      1.974283
O       5.66395      2.04301      0.44317         0.118466     -0.538845      1.566491
O       5.76999      1.91302     13.46252        -0.047604      0.183784      1.161908
O       5.74960     13.57894      0.47499         0.018613     -0.404968      1.738442
O       5.66303     13.53290     13.46044         0.085972     -0.396949      0.509952
O       5.72062      1.92041      4.91574         0.302680     -0.197014      1.450575
O       5.75948     13.29287      4.95871        -0.111124      0.249172      0.620175
O       5.92340      1.77670      9.17467        -0.608549      0.309418      0.150693
O       5.77828     13.47212      9.21890        -0.122996     -0.162719      1.764014
O       5.87048      5.62486      0.53209        -0.486311      0.156253      1.214422
O       5.77627      5.83204     13.43397         0.008172     -0.400767      1.749679
O       5.69681      5.62709      4.75799         0.246002      0.444634      1.166166
O       5.79821      5.79380      9.07443        -0.523627     -0.092547      2.557815
O       5.79812      9.66940      0.38085        -0.264674     -0.081780      2.361969
O       5.79063      9.40356     13.47754        -0.365227      0.514207      1.557927
O       5.67784      9.87887      4.86560        -0.312470     -0.780801      1.080952
O       5.74251      9.55240      9.20102         0.124444     -0.141334      1.262465
O       9.51417      2.10741      0.24522         0.083892     -0.726432      1.575450
O       9.55373      1.73005     13.54228        -0.139745      0.665335      1.264871
O       9.48531     13.33866      0.51470         0.270502     -0.022517      0.662035
O       9.70178     13.53364     13.43969        -0.574423     -0.194426      1.780440
O       9.60794      1.85424      4.93772        -0.286346      0.042008      1.290161
O       9.53164     13.67929      4.83333         0.456957     -0.756843      0.636221
O       9.58238      2.02686      9.09364         0.092249      0.056221      1.048069
O       9.67778     13.27409      9.09047         0.141403      0.551257      1.414421
O       9.75888      5.53830      0.59434        -0.589257      0.402605      1.455608
O       9.60023      5.85810     13.58305         0.154214     -0.495278      0.928144
O       9.54063      5.94244      4.79618        -0.218167     -0.635949      0.454673
O       9.58006      5.72493      9.23016         0.424557     -0.099844      1.422490
O       9.50104      9.74531      0.45340         0.289355     -0.602520      1.108536
O       9.60358      9.52026     13.58290        -0.136527      0.257471      0.740383
O       9.65401      9.51694      4.85852        -0.240957      0.059071      0.660479
O       9.46561      9.65669      9.24118         0.337747     -0.419153      1.208590
O       3.75691      1.92872      2.83684         0.688789     -0.134114     -0.495332
O       3.72988      1.97087     15.71087         0.930723     -0.571279     -0.144313
O       3.82424     13.42665      2.81207         0.337419     -0.326939     -0.400362
O       3.99232     13.46620     15.79222        -2.779206      0.161201      0.011664
O      15.27367      1.87814      2.68733         0.301121     -0.093028     -0.014959
O      15.26605      1.87733     15.89459         0.265667     -0.035614     -0.349898
O       0.12840     13.42108      2.58418        -0.952367      0.089230     -0.288023
O      15.29461     13.32167     15.69994         0.825177     -0.141137     -0.185002
O       3.92372      1.80995      7.15314        -1.608841     -0.273245      0.005989
O       3.86944     13.43412      7.17302        -1.106244      0.121759     -0.331030
O      15.32376      2.01064      6.95212        -0.509253     -0.278341      0.287583
O      15.32608     13.39603      7.16368         0.172155      0.216478     -0.174521
O       3.81650      1.85958     11.42289        -0.516402      0.170413     -0.627649
O       3.74784     13.46765     11.36157         0.886615     -0.360662      0.034398
O      15.33074      1.87819     11.34879        -0.732652     -0.076724      0.103475
O       0.02000     13.42503     11.40929        -1.102243     -0.015252      0.182754
O       3.77162      5.66083      2.76441         1.121263      0.286379      0.036489
O       3.85408      5.81334     15.75691         0.145749     -0.147250     -0.249071
O       0.02614      5.76569      2.70599        -0.469269     -0.211009     -0.231089
O       0.04019      5.74543     15.88843        -0.606088     -0.014840     -0.198548
O       3.86705      5.81500      7.05270        -0.127126     -0.379459     -0.013390
O      15.29760      5.68295      6.88295         0.463508     -0.077281      0.275001
O       3.81320      5.74008     11.50907         0.072868     -0.198184     -0.916783
O       0.01516      5.75800     11.53928        -0.800395     -0.165055     -0.450659
O       3.84846      9.72781      2.59879        -0.674334     -0.694155      0.140588
O       3.88587      9.50070     15.73957        -0.320147     -0.016814     -0.180736
O       0.08929      9.55566      2.66505        -0.982395      0.041204     -0.555338
O      15.35797      9.61324     15.63699        -0.384728      0.221354      0.294012
O       3.86472      9.65407      7.13763        -1.521047     -0.321612     -0.060032
O       0.03881      9.43944      7.05943        -0.294050      0.409300     -0.079031
O       3.80188      9.63639     11.42392         1.121363     -0.461379     -0.220312
O       0.12093      9.51424     11.53925        -2.568447      0.193900     -0.164091
O       7.64145      1.87061      2.62823        -0.020691      0.410483     -0.057474
O       7.60659      1.88583     15.75455        -0.511261      0.284514     -0.578390
O       7.62350     13.42907      2.77607        -0.166960      0.234485     -0.244191
O       7.59842     13.40235     15.74145         0.811620      0.554884     -0.409047
O       7.68872      1.91338      7.13140        -0.058717      0.070763     -0.439210
O       7.77583     13.29165      7.11562        -0.611544      0.219483     -0.344585
O       7.72963      1.94596     11.36968        -1.012920      0.121813      0.026066
O       7.68892     13.45335     11.44134        -0.131126     -0.202699     -0.335323
O       7.59133      5.72248      2.73446         1.544713     -0.115506      0.041715
O       7.69944      5.74348     15.74852        -0.053876      0.273896     -0.215247
O       7.63930      5.70996      6.99526        -0.148334     -0.259537     -0.345011
O       7.78243      5.63410     11.53494        -1.671289      0.532381     -0.431793
O       7.66728      9.48529      2.76282        -0.670313      0.181873     -0.138283
O       7.58911      9.51963     15.84625         1.376505      0.167569     -0.583423
O       7.67731      9.61073      7.06998        -0.469925      0.358122     -0.220284
O       7.69010      9.64191     11.58928        -0.631345     -0.171178     -0.956357
O      11.47154      1.78751      2.52378        -0.696898      0.614093     -0.007215
O      11.41936      1.87532     15.66629         0.828327      0.274081     -0.008901
O      11.48629     13.42641      2.66818        -0.426039     -0.339519     -0.177657
O      11.44316     13.37995     15.76741        -0.162503      0.060281     -0.048217
O      11.52994      1.82928      7.12576        -0.938681      0.549974     -0.305178
O      11.61097     13.31895      7.07834        -0.904655      0.351805     -0.312663
O      11.46948      1.86972     11.37863        -0.189738     -0.040382      0.168699
O      11.51545     13.46654     11.36320        -0.492851     -0.125171     -0.349182
O      11.52774      5.63192      2.82127        -0.369268      0.402544     -0.575959
O      11.52319      5.69175     15.93184        -0.522786      0.412956     -0.329604
O      11.49642      5.91045      6.95872        -0.092544     -0.379700      0.147094
O      11.46344      5.75491     11.51031         0.686544      0.239672     -0.130287
O      11.52176      9.69987      2.74138         0.027968     -0.264332     -0.556131
O      11.46954      9.45618     15.66670         0.158627      0.610915      0.259815
O      11.50807      9.51643      6.99447         0.105227     -0.609990      0.440034
O      11.53732      9.50873     11.36148        -0.055139      0.598388     -0.162244
O       1.89245      3.82588      2.83217        -0.464486     -0.257707     -0.277495
O       1.86315      3.78660     15.86842        -0.085482      0.055361     -0.400559
O       1.92333     15.28109      2.69532         0.271269      0.732799     -0.144890
O       1.87134     15.28355     15.81030         0.099665      0.173155     -0.275396
O      13.39864      3.76362      2.65743        -0.064671      0.204206     -0.277878
O      13.35512      3.81752     15.88614         0.429577     -0.637941     -0.511834
O      13.39393     15.25305      2.62801         0.324481      0.750979      0.125665
O      13.38276     15.25637     15.74679         0.077117      0.543173     -0.469321
O       1.95136      3.84903      7.06189         0.259164     -0.621052     -0.449481
O       1.79172     15.35060      7.21575         0.586683      0.386603     -0.413927
O      13.33628      3.90385      6.92668        -0.295297     -0.513760      0.288505
O      13.37815     15.33531      6.92789         0.374951      0.310826      0.091367
O       1.79793      3.79464     11.49185         0.801817     -0.287118     -0.354098
O       1.80110     15.31274     11.34881         0.466837      0.580816      0.116611
O      13.33222      3.82189     11.41212         0.102933     -0.218253      0.062548
O      13.38636     15.30533     11.39693         0.324202      1.393100      0.120951
O       1.95322      7.64466      2.56468         0.397691      0.733953      0.263699
O       1.87509      7.68631     15.88419         0.171222     -0.453546     -0.734754
O      13.39967      7.74317      2.56214        -0.119568     -0.805645     -0.042615
O      13.45017      7.68053     15.83620        -0.234133     -0.075323     -0.087346
O       1.92632      7.63968      7.18773         0.186534      0.095525     -0.514604
O      13.51632      7.56631      7.01682        -0.400190      0.878920      0.234369
O       1.85684      7.58442     11.57145         0.818797      0.064017     -0.630510
O      13.41657      7.68838     11.62616         0.165925     -0.305841     -0.814241
O       1.87176     11.46863      2.60284         0.727462      0.434825     -0.368888
O       2.05805     11.42441     15.70949        -0.378130      1.540998     -0.018771
O      13.50128     11.55051      2.73968        -0.075288     -0.293359     -0.476172
O      13.31595     11.42315     15.83675         0.229313      0.541976     -0.404981
O       1.81405     11.50826      7.02188         0.689213     -0.096657      0.052356
O      13.47204     11.37212      7.12220         0.033393      0.501101     -0.283382
O       1.84294     11.43848     11.33977         0.325244      1.062353      0.148909
O      13.42866     11.53900     11.36350        -0.022007     -0.795414     -0.258808
O       5.71462      3.80517      2.79230         0.077719     -0.313552     -0.181788
O       5.73532      3.91762     15.69760         0.069761     -1.126101     -0.428500
O       5.68330      0.05228      2.69084         0.018181     -0.804246      0.012106
O       5.78283      0.02787     15.73064        -0.637109      0.543462     -0.444854
O       5.63403      3.79487      7.11438         0.707375      0.120743     -0.403908
O       5.89256     15.22374      7.09299        -0.410583      1.213793     -0.270145
O       5.65319      3.83329     11.24650         0.246824      0.149325      0.047292
O       5.73651      0.03863     11.39710         0.041058     -0.564547     -0.135010
O       5.67080      7.62571      2.61164        -0.011564      0.521933      0.346906
O       5.79662      7.64211     15.85893        -0.103404     -0.481152     -0.395135
O       5.78803      7.66292      6.92691        -0.295042      0.375607      0.065877
O       5.68352      7.64689     11.37884         0.487439     -0.074812     -0.539633
O       5.78288     11.47513      2.65102         0.183178      1.282134     -0.232816
O       5.73696     11.48195     15.63521        -0.042010      0.188327     -0.177218
O       5.72250     11.48232      7.30754         0.048949      0.222248     -0.563893
O       5.76869     11.48321     11.41970        -0.052611      0.444611     -0.149083
O       9.49832      3.75334      2.83399         0.348028     -0.098074     -0.545160
O       9.50820      3.88024     15.61027         0.242853     -0.702920     -0.379388
O       9.50755      0.01421      2.51363         0.051564     -0.028131     -0.055953
O       9.63397     15.32215     15.78045        -1.099996     -0.207639     -0.522253
O       9.58519      3.91628      7.03060         0.280086     -0.740871     -0.234409
O       9.61004     15.28184      7.09079         0.156426      0.590757     -0.024729
O       9.60932      3.83669     11.45733         0.432700     -0.570687      0.155648
O       9.53405      0.00638     11.19559         0.363566      0.153305      0.115561
O       9.62089      7.68616      2.63964         0.156506     -0.949489     -0.265468
O       9.63089      7.67627     15.89640        -0.378493     -0.588818     -0.164443
O       9.45213      7.63323      7.12745         0.446830      0.636247      0.015069
O       9.59445      7.72982     11.42442        -0.200023     -0.831271     -0.210246
O       9.48943     11.48145      2.77076         0.321895      0.416583     -0.196481
O       9.54212     11.53416     15.69394        -0.019092     -0.467912     -0.302405
O       9.65937     11.46471      7.06353         0.129478     -0.192972     -0.518452
O       9.60876     11.56441     11.41560        -0.094207     -0.445549     -0.047697
