  # total energy = -7881.94339119 
CRSYTAL
PRIMVEC
    15.3600000000000000    0.0000000000000000    0.0000000000000000
     0.0000000000000000   15.3600000000000000    0.0000000000000000
     0.0000000000000000    0.0000000000000000    17.440000000000000
PRESSURE
0.47356 0.611965 -0.734292 -0.063164 -0.289992 -0.046427
PRIMCOORD
320 1
Pb       3.93678      3.79725      4.38935        -0.102354      0.135947     -0.416867
Pb       3.88543      3.81285      0.03075         0.135999      0.034242     -0.495248
Pb       3.77099      0.03211      4.34467         0.390543     -0.093429      0.247238
Pb       3.79159     15.28602     17.35330        -0.150912      0.285077     -0.628095
Pb       0.08350      3.80409      4.36109        -0.087522     -0.059447     -0.395191
Pb       0.05518      3.86084      0.01190        -0.461574      0.224265     -0.604216
Pb       0.10091      0.03737      4.37188        -0.517314     -0.124263      0.092758
Pb      15.23901      0.07788     17.36695         0.477343     -0.448566     -0.266194
Pb       3.74869      3.81190      8.69163         0.243232      0.031906     -0.229639
Pb       3.76161     15.30598      8.65806         0.264247      0.110628     -0.257421
Pb      15.10412      3.96059      8.64819         0.890722     -0.635779      0.328159
Pb      15.23616     15.28460      8.74217        -0.001514      0.353982     -0.487765
Pb       3.95004      3.64043     13.05869        -0.118618      0.518811     -0.722836
Pb       3.79044      0.01013     12.93953        -0.024775     -0.177294      0.161430
Pb       0.03210      3.77525     13.01857        -0.333150      0.071992      0.203666
Pb      15.27769     15.20665     13.05537         0.167180      0.501498     -0.521215
Pb       3.83816      7.67747      4.31914         0.265019     -0.108016     -0.257157
Pb       3.80918      7.64323      0.03220        -0.252133     -0.369566     -0.488083
Pb       0.13158      7.76299      4.28877        -0.318716     -0.635225      0.525863
Pb      15.35652      7.70381      0.05467         0.220959     -0.574007     -0.598100
Pb       3.76022      7.69706      8.63029        -0.041479     -0.238829      0.040460
Pb      15.26894      7.63491      8.64345         0.083137      0.388767      0.118703
Pb       3.89635      7.56831     13.06836        -0.254006      0.141018     -0.615683
Pb      15.33111      7.66217     13.07118         0.322905     -0.202999      0.228617
Pb       3.81198     11.53815      4.30287         0.177289      0.078507     -0.029641
Pb       3.90883     11.58667     17.42382        -0.357657     -0.016886     -0.482929
Pb       0.10560     11.55797      4.30773        -0.520624     -0.137872     -0.236422
Pb      15.24693     11.49261     17.39061         0.215490      0.182708     -0.165792
Pb       3.86387     11.46966      8.65927        -0.193263      0.421766      0.212805
Pb       0.02124     11.48171      8.72735        -0.945374     -0.033375     -0.238665
Pb       3.91723     11.38215     13.04341        -0.453977      0.437710     -0.194908
Pb       0.16711     11.48228     13.01881         0.094824      0.529688     -0.059779
Pb       7.65904      3.79868      4.21322         0.344860     -0.272577     -0.079175
Pb       7.70979      3.81819      0.05554        -0.516889     -0.384376     -0.133185
Pb       7.65112     15.32220      4.41942         0.318971      0.145131     -0.639495
Pb       7.50882      0.01858     17.34744         0.455285      0.167208     -0.010400
Pb       7.49796      3.91875      8.70016         0.380286     -0.659088     -0.275075
Pb       7.66963      0.00887      8.78402        -0.468625      0.540566     -0.820745
Pb       7.84703      3.89287     13.01473        -1.072508     -0.192998     -0.034766
Pb       7.70102      0.09055     12.96253        -0.126248      0.054451      0.332516
Pb       7.72698      7.58122      4.32897         0.038635     -0.022424     -0.198221
Pb       7.57888      7.74314      0.02772        -0.010840     -0.248073     -0.529300
Pb       7.73313      7.60152      8.72749         0.447171      0.512922     -0.259720
Pb       7.72260      7.72134     13.10139        -0.740490     -0.329028     -0.413090
Pb       7.64010     11.42812      4.35617        -0.035241      0.464838     -0.533202
Pb       7.64892     11.62095     17.28628        -0.245241     -0.392048     -0.243507
Pb       7.68133     11.58615      8.68012         0.188774     -0.336665     -0.275789
Pb       7.77757     11.60119     12.93334        -0.734512     -1.123236      1.366004
Pb      11.47278      3.74897      4.29582        -0.176834     -0.008104     -0.397413
Pb      11.67296      3.88680      0.16790        -0.283068     -0.248951     -1.223158
Pb      11.64318     15.30077      4.38166        -0.658981     -0.126445     -0.497815
Pb      11.23599     15.25878      0.03817         0.569649      0.514865     -0.172948
Pb      11.48425      3.86534      8.62770        -0.219184     -0.512706      0.611462
Pb      11.45071      0.06070      8.75235         0.660928      0.070302     -0.401766
Pb      11.51767      3.73190     13.00525         0.241280      0.182209      0.337638
Pb      11.46418     15.28673     13.11190         0.082196      0.466063     -0.785592
Pb      11.58009      7.51567      4.36685        -0.651878      0.671085     -0.361750
Pb      11.44064      7.72854     17.43075         0.031191     -0.340255     -0.747106
Pb      11.62145      7.71533      8.65800        -1.158832     -0.171389      0.338145
Pb      11.35261      7.56056     13.15898         0.286334      0.108648     -0.070540
Pb      11.50676     11.44976      4.26515         0.135143      0.428555     -0.560949
Pb      11.40615     11.46695     17.35868        -0.100607     -0.266310     -0.331958
Pb      11.46884     11.41402      8.65973         0.444432      0.179387     -0.321098
Pb      11.58436     11.49343     13.04086        -0.598252      0.225725      0.049106
Ti       1.91520      1.88196      2.27495         0.448572      0.491513      0.673330
Ti       1.88143      1.94919     15.33636         0.258642     -0.507523     -0.132178
Ti       1.92886     13.48806      2.29805        -0.334979     -0.156398     -1.507197
Ti       1.80809     13.43331     15.34131         1.018707      0.455520     -0.081039
Ti      13.49632      1.84920      2.26472        -0.879502     -0.211343      0.063165
Ti      13.35563      1.81529     15.43872        -0.009217      1.527046     -0.373979
Ti      13.46767     13.38821      2.26625        -0.765479      0.245567      2.150904
Ti      13.39106     13.40763     15.33096        -0.040423      0.038341      0.907435
Ti       1.85566      1.92295      6.69545        -0.044273     -0.573499     -0.604321
Ti       1.88543     13.36719      6.71131         0.222907      0.917612      0.216122
Ti      13.38862      1.91887      6.61350         0.047272     -0.815986      1.949967
Ti      13.39148     13.42438      6.59891         0.491457      0.200818      1.941701
Ti       1.86697      1.95193     10.90174         0.155950     -0.322452      0.433746
Ti       1.95669     13.52421     10.93222        -0.312305     -0.836545      1.069580
Ti      13.41858      1.92404     11.04850        -0.227507     -0.588450     -0.161742
Ti      13.38102     13.34725     10.98345         0.494260      2.880471      0.170647
Ti       1.89252      5.68256      2.40686         0.490901      0.833965     -0.851985
Ti       1.91545      5.75446     15.38520        -0.485606      0.176160      1.131061
Ti      13.41769      5.70991      2.26159         0.555348      0.248916      0.960965
Ti      13.39874      5.73499     15.34573        -0.204701     -0.785076      0.620646
Ti       1.90909      5.73531      6.51870        -0.220938     -0.288631      0.305186
Ti      13.37137      5.82814      6.59193        -0.819610     -0.592240      0.199772
Ti       1.86642      5.73909     11.03559         0.823272     -0.193689     -0.033231
Ti      13.43666      5.84336     11.11930        -0.493985     -0.803422      2.359899
Ti       1.92868      9.62076      2.24468         0.036695     -0.608398     -0.555747
Ti       1.81232      9.59595     15.38859         0.881436     -0.540469      0.583199
Ti      13.34499      9.48419      2.29249        -0.089443      0.877637      1.142414
Ti      13.40190      9.55762     15.34638        -0.671520     -0.765314      1.232792
Ti       1.83695      9.57195      6.72847        -0.659914      0.236415     -0.359068
Ti      13.35419      9.62822      6.52895         0.770043      0.278241     -0.042657
Ti       1.72569      9.55018     10.98218         1.844708      0.209137      0.628636
Ti      13.30735      9.64080     11.10894         0.597726     -1.439541     -1.343646
Ti       5.72406      1.81504      2.33590         0.957708      0.972019     -0.247863
Ti       5.78152      1.93808     15.31841        -0.198038     -0.060181     -0.246820
Ti       5.73157     13.39612      2.26077         0.161738      0.510563     -0.193440
Ti       5.67671     13.45330     15.29510         0.233980     -0.209024     -1.198493
Ti       5.72919      1.92321      6.67967         0.143535     -0.080132      0.097787
Ti       5.86195     13.37992      6.63209        -0.846331      1.610254     -0.418777
Ti       5.80417      1.93618     11.05131        -0.192111      0.005526     -0.372594
Ti       5.84427     13.41546     11.04458        -2.349551      0.201894     -0.207707
Ti       5.82111      5.76791      2.30915        -1.061616     -0.450075     -0.301456
Ti       5.73552      5.72319     15.36843         0.039841      0.049993     -0.092814
Ti       5.76256      5.90734      6.63503        -0.340352     -2.602141     -0.806972
Ti       5.70214      5.74241     10.95532         0.082241     -0.526516      1.694566
Ti       5.75615      9.56666      2.32581        -0.550974     -0.161840     -0.229886
Ti       5.60740      9.59406     15.35405         0.643357     -0.258993     -0.723119
Ti       5.76897      9.63936      6.65982        -0.079863     -0.261850     -1.384802
Ti       5.62007      9.56279     10.98917         0.401386     -0.543621      0.689152
Ti       9.64158      1.79161      2.38589        -0.752740      0.382489      0.182225
Ti       9.59720      1.94570     15.41029        -0.229390     -0.738353      1.329790
Ti       9.55925     13.36866      2.24567        -0.185344      0.832564      1.548158
Ti       9.52856     13.45036     15.36916        -0.471770     -0.147161     -0.859995
Ti       9.56085      1.90573      6.68177        -0.218063      0.103208      1.112066
Ti       9.77724     13.40363      6.64165        -1.757210      0.252345     -0.234437
Ti       9.66575      1.89550     10.94705        -1.066279      0.865728      0.742719
Ti       9.56716     13.38398     10.95945         1.132523      0.805309      1.174337
Ti       9.67496      5.76592      2.26007        -1.427202     -0.375487      0.289480
Ti       9.48389      5.64744     15.46811         0.692852      0.727393     -0.392545
Ti       9.59190      5.72585      6.67004         0.378237      0.380724     -0.761243
Ti       9.57665      5.80670     11.03996        -0.418783     -0.622645     -0.466423
Ti       9.52671      9.56358      2.32878         0.545620     -0.117877      1.192119
Ti       9.45166      9.49867     15.33352         0.385516      0.656993     -0.091014
Ti       9.59720      9.58548      6.45521        -0.506412     -0.674079      1.609349
Ti       9.53470      9.56360     11.01892        -0.789085     -0.719471      0.924740
O       1.97550      1.93400      0.52705        -0.190594     -0.372623     -0.044205
O       1.93889      1.93665     13.55479         0.034853      0.414691      0.411704
O       1.96181     13.55891      0.46217        -0.219014     -0.304626      1.337764
O       1.91730     13.44836     13.56718        -0.469464     -0.168774      0.468453
O      13.50655      1.75835      0.48008        -0.223421      0.394372      0.689940
O      13.20919      1.92231     13.66752         0.483788     -0.261179      0.031906
O      13.46987     13.48392      0.56385        -0.030588     -0.272060     -1.132315
O      13.50026     13.26333     13.57977        -0.674647      0.316626      0.008657
O       1.93251      1.96845      4.82403        -0.415155     -0.295177      1.445708
O       1.96900     13.34238      4.92844        -0.519827      0.043571      0.140954
O      13.46911      1.85083      4.90585         0.003115      0.540117     -1.488177
O      13.24937     13.39894      4.88165         0.433277     -0.190911     -0.928362
O       1.93226      1.90288      9.14209        -0.061369      0.000381     -0.449183
O       1.90033     13.53576      9.15733        -0.140998     -0.403093      0.393682
O      13.30347      1.81424      9.27534         0.323652      0.270674      0.081929
O      13.33950     13.60631      9.24576         0.116103     -0.607358      0.308643
O       1.88803      5.84411      0.59768        -0.111216     -0.364488      1.152014
O       1.79302      5.64642     13.64843         0.504543      0.225355     -0.419597
O      13.45704      5.63890      0.52089        -0.278695      0.383207     -0.417006
O      13.46605      5.64604     13.57101        -0.201023      0.285316      0.136609
O       1.87339      5.67034      4.72693         0.065621     -0.007397      0.976979
O      13.17888      5.88417      4.84515         0.714459     -0.905626      0.204538
O       1.86886      5.82014      9.26351        -0.026989      0.132018     -0.028500
O      13.38769      5.73746      9.43307         0.176761      0.236336     -2.499994
O       1.83442      9.49149      0.42884         0.105476      0.464975      1.808572
O       1.87283      9.50832     13.62223        -0.216384      0.313744      0.389065
O      13.32374      9.48153      0.53931         0.364224      0.309840     -0.470713
O      13.45578      9.65856     13.60543        -0.428094      0.196253     -0.406291
O       1.77513      9.64347      4.96613         0.083080      0.257617     -0.295456
O      13.48636      9.56247      4.73049        -0.174341      0.113793      1.226726
O       1.66574      9.53804      9.20355         0.508410     -0.339509     -0.230761
O      13.32000      9.56999      9.30377        -0.248235     -0.035138      1.174592
O       5.82999      1.99495      0.56914        -0.344971     -0.575267      0.422729
O       5.81479      1.88896     13.48746        -0.448102     -0.053448      1.164713
O       5.62773     13.39455      0.43427         0.172075     -0.074513      0.752879
O       5.67919     13.38923     13.48425         0.037301      0.194500      0.751279
O       5.71601      1.84500      4.86196         0.076408      0.165963      0.868321
O       5.79448     13.49378      4.81308        -0.272860     -0.626689      1.257148
O       5.78122      1.97044      9.26067        -0.048269      0.031937     -0.075840
O       5.78920     13.32808      9.24532         0.351436      0.086587      0.621882
O       5.68728      5.75316      0.52474         0.322801      0.212044      0.487949
O       5.93453      5.74350     13.60477        -1.008536     -0.090664      0.397623
O       5.65709      5.88400      4.84775         0.525173     -0.290737      0.691709
O       5.62474      5.63685      9.20551         0.110318      0.372727     -1.218880
O       5.72011      9.47432      0.53648         0.054681      0.413590      0.213438
O       5.66147      9.68637     13.55502        -0.194187     -0.785020      0.716893
O       5.68409      9.73089      4.82637         0.153666     -0.072898      1.522223
O       5.62356      9.60537      9.22754         0.075265     -0.177750     -0.911470
O       9.57445      1.78101      0.63330        -0.082740      0.009847     -0.677608
O       9.53839      1.84423     13.68868         0.317628     -0.042247     -1.031253
O       9.42579     13.48133      0.48852         0.480843     -0.293014     -0.434962
O       9.49079     13.48014     13.57094         0.433102     -0.125133      0.300869
O       9.45506      1.94115      4.95909         0.252754      0.102397     -0.837217
O       9.78238     13.25852      4.89041        -0.372235      0.437559      0.471779
O       9.59921      1.96806      9.22331        -0.001351     -0.378848     -0.911166
O       9.63253     13.27952      9.22945        -0.418037      0.331220     -0.411091
O       9.54196      5.69779      0.50394         0.234798      0.137273     -0.271499
O       9.39513      5.65762     13.64629         0.665652      0.661732      0.520434
O       9.71353      5.87072      4.84928        -0.234044     -0.763656      1.000767
O       9.52420      5.96589      9.27148        -0.032266     -0.515948      0.288481
O       9.37408      9.48542      0.63625         0.248187      0.333529     -2.197903
O       9.44769      9.58753     13.54458         0.487781     -0.302316      0.257782
O       9.64381      9.58616      4.71095        -0.412765      0.201081      0.080912
O       9.41263      9.45486      9.29039         0.430620      0.295985     -0.485335
O       3.82120      1.98806      2.75509        -0.033593     -0.153763     -0.218857
O       3.85044      1.87836     15.79953        -0.117956      0.714656     -0.257852
O       3.77352     13.40256      2.67044         0.246715      0.063741      0.129399
O       3.79051     13.33107     15.70520        -0.589608      0.289027      0.396626
O       0.01078      1.83756      2.68804        -0.406011      0.021763      0.065346
O      15.34381      1.89788     15.70303         0.066740      0.066895      0.277974
O      15.30443     13.57433      2.78952         0.616223     -0.599667     -0.276722
O      15.27501     13.44167     15.76808         0.154272     -0.240609     -0.011117
O       3.81994      1.95905      7.01750        -0.447249     -0.116912      0.185527
O       3.76902     13.31841      7.09256         0.514618     -0.177189     -0.141631
O      15.30817      1.80204      7.11505        -0.102249      0.495590     -0.337197
O      15.24394     13.44294      7.16432         0.700950     -0.080512     -0.627275
O       3.83691      1.78512     11.34149        -0.091577      0.086115      0.296569
O       3.79198     13.55866     11.36391         0.342900     -0.034410     -0.362444
O      15.32566      2.02347     11.42455         0.094741     -0.115692     -0.330374
O      15.30443     13.40488     11.53497         0.301940     -0.473322     -0.849308
O       3.85587      5.69701      2.75464        -0.211684     -0.126848     -0.051560
O       3.82410      5.76613     15.87489        -0.303945     -0.532301     -0.518150
O      15.29113      5.71875      2.77606         0.329519      0.375843     -0.219639
O      15.26713      5.77904     15.85930         0.392451      0.053263     -0.126314
O       3.74203      5.68379      6.96696        -0.266176      0.523564      0.002212
O      15.17484      5.81475      7.07544         1.100179     -0.262282     -0.358900
O       3.83069      5.63717     11.44482        -0.610157      0.684750      0.282353
O       0.00209      5.68323     11.52251         0.031302     -0.498227     -0.346822
O       3.82015      9.67060      2.72353        -0.437826     -0.313812     -0.118743
O       3.74156      9.62627     15.75034         0.276926      0.192596      0.066682
O       0.12619      9.35776      2.75353        -0.959688      1.436896     -1.117619
O      15.26005      9.42858     15.80848        -0.466088      0.696782     -0.132211
O       3.70500      9.62769      7.00769         1.009234     -0.104442      0.386953
O      15.13633      9.55154      7.19634         0.772168     -0.085888     -0.605424
O       3.75187      9.42888     11.41011        -0.018342      0.242209     -0.085585
O      15.30427      9.67296     11.46733        -0.517364      0.245128     -0.048840
O       7.66104      1.81079      2.88004        -0.884550      0.192427     -0.384139
O       7.63739      1.99448     15.85954         0.201166     -0.988814     -0.151131
O       7.60810     13.50796      2.66334         0.244744     -0.454803      0.042571
O       7.59124     13.41374     15.69797        -0.019209      0.114431      0.320344
O       7.62033      1.84251      7.19675        -0.008281     -0.009191     -0.328288
O       7.70409     13.39331      6.95197        -0.025457      0.296990      0.359732
O       7.65536      1.89811     11.41612         1.279046      0.115911     -0.217141
O       7.64672     13.36017     11.50804         1.435112      0.151404     -1.197375
O       7.72603      5.84138      2.72829         0.062715     -0.428459     -0.012133
O       7.57613      5.78322     15.81350         1.200973     -0.201845      0.519251
O       7.69526      5.82111      7.03151        -0.991577     -0.091169     -0.037511
O       7.57719      5.70506     11.43085         1.411572      0.285094     -0.517989
O       7.58950      9.54078      2.72608         0.636926      0.585062      0.406463
O       7.62317      9.56316     15.72507        -0.817623     -0.167470      0.414912
O       7.63388      9.44233      6.85978        -0.100695      0.549284      0.167439
O       7.59129      9.49693     11.42826         0.415358      0.355047     -0.275951
O      11.51058      1.78621      2.72442         0.856642      0.894139      0.159249
O      11.48435      1.92667     15.81590        -0.687304     -0.800539      0.337812
O      11.40677     13.43727      2.74602         1.003595     -0.155810     -0.756217
O      11.42298     13.50236     15.71868         0.598576     -0.448316      0.047538
O      11.44492      1.97874      7.01584         0.826390      0.205506      0.026807
O      11.54086     13.41134      7.17098        -0.077499     -0.607861     -0.032569
O      11.48023      1.88603     11.46848         0.172973     -0.327101      0.136566
O      11.46924     13.47977     11.46330        -0.259473     -0.387858     -0.025401
O      11.47664      5.63938      2.66831         0.574394      0.341783      0.003236
O      11.48256      5.69485     15.78771        -0.561601     -0.110384      0.121434
O      11.48507      5.67143      7.18539         0.169055      0.440403     -0.448914
O      11.49971      5.98665     11.46372        -0.052763     -0.906341      0.016319
O      11.47861      9.59835      2.61791         0.434624      0.213402     -0.146127
O      11.33802      9.55744     15.88723         1.007481      0.657441     -0.249554
O      11.44976      9.60908      6.98424        -0.053843      0.341784     -0.035075
O      11.45057      9.39494     11.50929         0.535101      0.862488     -0.061367
O       1.81606      3.76744      2.71343         0.097691      0.303110     -0.120732
O       1.81674      3.90444     15.92677         0.606329     -0.779658     -0.549482
O       1.88619     15.32700      2.85639         0.522900      0.583073     -0.590892
O       1.94302      0.03223     15.60581        -0.199922     -0.599409      0.569194
O      13.39512      3.85191      2.64378        -0.059906     -1.461582      0.224601
O      13.31378      3.74840     15.91167         0.811681      0.505308     -0.174740
O      13.31941     15.34492      2.72408         0.734747     -0.055487     -0.058303
O      13.47826     15.27901     15.82630        -0.627716      0.110033     -0.557020
O       1.70564      3.82872      6.88638         0.178323      0.741196      0.404518
O       1.89637     15.32915      7.03023         0.154788     -0.068400     -0.223830
O      13.37705      3.82268      7.20650         0.082687      0.429753     -1.148761
O      13.31811     15.35701      6.95247        -0.062154     -0.115784      0.255408
O       2.06951      3.77472     11.22108        -0.683884      0.681204      0.618017
O       1.74788      0.02376     11.32521         0.227139     -0.429213      0.203037
O      13.26111      3.79466     11.44442         0.541422      0.831543     -0.033332
O      13.46452      0.00428     11.45842        -0.249950     -0.375769      0.409590
O       2.01448      7.62679      2.82779        -0.121842      0.616985     -0.488664
O       1.94101      7.66556     15.88725        -0.423381     -0.022982     -0.466740
O      13.27350      7.63880      2.66212         0.571002     -0.386373     -0.145823
O      13.24981      7.64353     15.71217         0.219824      0.616126     -0.122476
O       1.75726      7.66690      6.88135         0.296939     -0.776910      0.580893
O      13.20738      7.68520      7.01530         0.642785      0.112399     -0.332132
O       1.79104      7.66017     11.47388         0.143304     -0.278336     -0.206035
O      13.64855      7.71725     11.47455        -0.819702      0.075739     -0.169489
O       1.85611     11.59977      2.70401        -0.344537     -1.326585     -0.335061
O       1.67335     11.50420     15.84612         0.481379     -0.190943     -0.470887
O      13.49937     11.47612      2.70912         0.116792      0.035189     -0.435815
O      13.28029     11.51551     15.90315         0.497551     -0.474616     -0.428432
O       1.73778     11.46026      7.17843         0.145446      0.387319     -0.304388
O      13.38819     11.50426      7.19629        -0.300932     -0.312272     -0.826201
O       1.99963     11.47541     11.43818        -0.554012      0.153394     -0.546930
O      13.31361     11.54902     11.31542        -0.266146     -1.479669      0.417281
O       5.89178      3.87943      2.60120        -0.369370     -0.651502      0.722262
O       5.81818      3.77043     15.82153        -0.835791      0.721607     -0.197635
O       5.57472     15.32153      2.63602         0.298770      0.017322      0.014603
O       5.72218     15.34923     15.71900        -0.046092      0.106481      0.062040
O       5.70017      3.86099      7.04364         0.424611     -0.192480     -0.157429
O       5.69542     15.28789      7.16256         0.180451     -0.048590     -0.389387
O       5.76887      3.79159     11.50451        -0.384561      0.153849     -0.412622
O       5.95357     15.31733     11.36238        -0.804692     -0.395415     -0.205840
O       5.80362      7.65394      2.72842        -0.708228      0.756292      0.079740
O       5.67787      7.62869     15.65758        -0.096454      1.196021      0.359365
O       5.66094      7.66719      6.96702        -0.453748      1.509946      0.635128
O       5.66159      7.58069     11.29488         0.086248      0.880012      0.324508
O       5.71309     11.55552      2.66368         0.192939     -0.691353      0.085771
O       5.67785     11.53934     15.66268         0.235717     -0.752057      0.742259
O       5.80998     11.50554      7.18477        -0.305026     -0.498195     -0.676452
O       5.62508     11.44221     11.41648         0.326966      0.684606     -0.333824
O       9.59787      3.74270      2.70660        -0.282365      0.955453      0.311481
O       9.51223      3.78207     15.83328         0.071103      0.711202      0.056779
O       9.52378     15.35623      2.81971         0.274675     -1.700694      0.031151
O       9.49262     15.32401     15.89138        -0.031063      0.442877     -0.374613
O       9.54082      3.83504      7.19271        -0.267970      0.447420     -0.619761
O       9.75011     15.35873      7.07394        -1.001328     -0.700225     -0.138614
O       9.59315      3.79912     11.44124         0.339398      1.006421     -0.319888
O       9.61333      0.05248     11.28897        -0.530043     -1.989533      0.219051
O       9.59609      7.68483      2.63887         0.151470     -0.861549      0.227509
O       9.60249      7.63808     15.77878        -0.536656     -0.217775     -0.124565
O       9.61837      7.64266      6.99836         0.065920      0.738555      0.044761
O       9.58976      7.63644     11.43436        -0.878752      0.530352      0.732130
O       9.63601     11.50025      2.65953        -0.882397      0.129746     -0.069542
O       9.44900     11.51707     15.71997         0.622830     -0.055778      0.379613
O       9.47305     11.48667      7.00885         0.521240     -0.757394      0.077352
O       9.61102     11.47712     11.37962         0.136736      0.210973     -0.102921
