  # total energy = -7883.42692863 
CRSYTAL
PRIMVEC
    15.3600000000000000    0.0000000000000000    0.0000000000000000
     0.0000000000000000   15.3600000000000000    0.0000000000000000
     0.0000000000000000    0.0000000000000000    17.440000000000000
PRESSURE
0.433096 0.682489 5.91393 -0.30154 -0.080755 0.00914
PRIMCOORD
320 1
Pb       3.81162      3.82857      4.35442         0.241507     -0.011316     -0.485620
Pb       3.88011      3.81955     17.38206        -0.370652      0.030163      0.099464
Pb       3.82674     15.34928      4.32511        -0.291237     -0.376724     -0.131948
Pb       3.85507      0.00410     17.40899        -0.390305     -0.371631     -0.301604
Pb      15.32608      3.82225      4.35341         0.212753      0.128636     -0.296395
Pb       0.01285      3.82224     17.43822        -0.011331      0.078680     -0.455909
Pb      15.35138     15.33323      4.33152         0.262759     -0.205539     -0.562808
Pb      15.26656     15.33415     17.41714         0.044466     -0.007986     -0.590977
Pb       3.81332      3.85822      8.64759        -0.300491     -0.106453     -0.201043
Pb       3.82188     15.33277      8.73694         0.065619      0.070300     -0.475317
Pb      15.24598      3.83551      8.65961         0.800946      0.249544     -0.389747
Pb      15.32063      0.04691      8.68200         0.006767     -0.680574     -0.377415
Pb       3.84812      3.80350     13.01977        -0.336235     -0.223687     -0.746021
Pb       3.81238     15.29995     13.03156        -0.372601      0.426248     -0.402105
Pb      15.32741      3.78116     13.06517         0.241822     -0.082597     -0.320344
Pb      15.34460      0.00584     12.99797         0.059709     -0.020889     -0.031422
Pb       3.84825      7.68420      4.30468         0.073653     -0.527479      0.142975
Pb       3.79407      7.66558      0.00203        -0.195908     -0.088895     -0.661875
Pb       0.04437      7.66245      4.31832        -0.307833      0.162786     -0.236328
Pb      15.34587      7.71746     17.38035        -0.175584     -0.359603      0.107635
Pb       3.87353      7.63539      8.68921        -0.405690      0.345709     -0.111725
Pb      15.33590      7.64688      8.68540         0.154172      0.097422     -0.300531
Pb       3.82848      7.66001     13.06253         0.041987     -0.280990     -0.630622
Pb       0.00744      7.67362     13.05856        -0.493535     -0.102880     -0.385979
Pb       3.77215     11.48399      4.32035         0.205237      0.457634     -0.241141
Pb       3.88289     11.43870     17.38432        -0.458278      0.216859     -0.514989
Pb       0.03483     11.54937      4.27588        -0.205373     -0.194001     -0.344495
Pb      15.32785     11.48445     17.39294        -0.031905      0.073343     -0.452749
Pb       3.80721     11.54079      8.70530         0.044947     -0.283319     -0.829661
Pb      15.34982     11.45732      8.68075        -0.046082      0.103824     -0.582500
Pb       3.87057     11.51058     13.03844         0.070076     -0.023578     -0.601051
Pb       0.01686     11.49187     13.08047        -0.483645      0.130403     -0.531992
Pb       7.66803      3.78140      4.35518        -0.186218      0.226544     -0.483387
Pb       7.70118      3.85845     17.34853        -0.442634     -0.248922      0.000813
Pb       7.65973      0.01699      4.31469         0.351509     -0.331841      0.222595
Pb       7.58331     15.34387     17.38565         0.477777      0.020527     -0.585802
Pb       7.66455      3.82011      8.69102        -0.291436     -0.119679     -0.698186
Pb       7.67860     15.31098      8.67475        -0.379864      0.475127     -0.723823
Pb       7.71532      3.86443     13.11405        -0.535818     -0.289766     -0.550361
Pb       7.68440      0.02523     13.04306         0.054079     -0.139344     -0.413256
Pb       7.62253      7.63431      4.30724         0.104469     -0.203732     -0.174215
Pb       7.66609      7.65133     17.41356         0.042524      0.016705      0.065584
Pb       7.63915      7.71968      8.66206        -0.019284     -0.132644     -0.210220
Pb       7.65273      7.64180     13.03519        -0.253203      0.336665     -0.598182
Pb       7.65308     11.47787      4.32760         0.103465     -0.157921      0.056479
Pb       7.63863     11.55084     17.36862         0.216903     -0.400088     -0.054965
Pb       7.69235     11.49252      8.69456        -0.162883     -0.193512     -0.544853
Pb       7.73490     11.56065     13.06899        -0.256684     -0.397116     -0.821470
Pb      11.53816      3.78920      4.34165        -0.414521      0.234887     -0.503315
Pb      11.50131      3.82513     17.42508         0.311208     -0.019778     -0.108333
Pb      11.51379      0.01115      4.28782         0.120767     -0.582831     -0.044639
Pb      11.48946     15.33724     17.33591        -0.030613      0.007820      0.164488
Pb      11.53459      3.89618      8.68180        -0.363142     -0.458518     -0.485390
Pb      11.50157     15.31784      8.67709         0.086705      0.006974     -0.767336
Pb      11.51116      3.78626     13.10232         0.125562      0.140485     -0.231219
Pb      11.46432     15.33945     13.03340         0.124053     -0.253981     -0.163306
Pb      11.53493      7.67565      4.29635        -0.285351     -0.146324     -0.819777
Pb      11.47193      7.63882     17.42444         0.055911     -0.089178     -0.406535
Pb      11.52468      7.66322      8.67890        -0.235873     -0.125647     -0.408009
Pb      11.46862      7.68133     13.02505         0.741584     -0.103205     -0.175775
Pb      11.52765     11.46375      4.35361        -0.266953      0.387434     -0.576289
Pb      11.46657     11.49618     17.39789         0.171103     -0.132139     -0.354811
Pb      11.49616     11.49979      8.73845        -0.034662      0.178673     -0.559362
Pb      11.49916     11.50357     13.00870        -0.038966     -0.363147     -0.063112
Ti       1.96006      1.95601      2.29725        -0.264319     -0.998386      3.001537
Ti       1.97798      1.91621     15.38120        -1.129023     -0.587710     -1.110493
Ti       1.89721     13.43117      2.18229         0.245943      0.649743      3.397674
Ti       1.88010     13.48620     15.37514        -0.224559     -0.349747      2.236000
Ti      13.50992      1.90352      2.35310        -0.497177     -0.028384      0.871483
Ti      13.45924      1.96158     15.36232         0.153510     -1.176297      3.411680
Ti      13.39876     13.36279      2.29415        -0.226912      0.542848      2.332723
Ti      13.38910     13.45967     15.31086         0.645267     -0.316795      2.044051
Ti       1.92496      1.87912      6.64097        -0.231428      0.581923      2.216545
Ti       1.88324     13.39444      6.67456        -0.154101      0.305817      1.798452
Ti      13.46119      1.92969      6.63982        -0.600652     -0.617336      2.807706
Ti      13.38898     13.40162      6.62906         0.068514      0.353848      2.353625
Ti       1.83425      1.87537     10.97081         1.047058      0.646836      1.898332
Ti       1.88117     13.42797     10.98454        -0.320217      0.238756      1.546685
Ti      13.38024      1.85326     11.01503         0.490502      0.103988      3.321908
Ti      13.41093     13.35965     11.05291        -0.222390      0.135452      1.412456
Ti       1.83993      5.75620      2.32226         0.480688     -0.497806      1.524347
Ti       1.86824      5.72277     15.31589        -0.267387     -0.068640      1.861768
Ti      13.40752      5.76264      2.29269        -0.073724     -0.019744      2.814613
Ti      13.40975      5.73009     15.35650        -0.232491      0.159845      0.936022
Ti       1.84933      5.81710      6.56978        -0.033111     -1.314611      2.360123
Ti      13.38410      5.81199      6.60625         0.210032     -0.420798      2.023918
Ti       1.88237      5.73275     11.01101         0.210754     -0.565449      0.422607
Ti      13.47463      5.66129     11.07342        -0.479329      0.415369      2.134685
Ti       1.96391      9.58549      2.27900        -1.253255     -0.010003      1.200717
Ti       1.86779      9.56967     15.33424        -0.092803      0.190019      2.862155
Ti      13.46573      9.55411      2.28216         0.002804      0.024179      1.712104
Ti      13.31206      9.56605     15.39712         0.498014     -0.034705      0.144734
Ti       1.86151      9.54220      6.61483         0.565296      0.719845      1.473021
Ti      13.33594      9.64574      6.60326         1.198026     -0.359902      2.160748
Ti       1.87042      9.60150     10.99808        -0.295464     -0.445605     -1.194313
Ti      13.41231      9.51474     10.99932        -0.240143      0.349410      3.049916
Ti       5.71108      1.82452      2.27916         0.737009      0.778399      3.598004
Ti       5.70862      1.85770     15.28850         0.507747      0.504590      1.877842
Ti       5.74138     13.37691      2.33568        -0.187197     -0.022055      2.716266
Ti       5.69955     13.38818     15.29306         0.088910      0.188434      0.654155
Ti       5.67974      1.90501      6.63457         1.022288     -0.083495      1.658901
Ti       5.65511     13.43097      6.59997         0.243384      0.364399      1.918625
Ti       5.69999      1.89735     11.03782         0.238594      0.210857      1.647305
Ti       5.71482     13.42882     10.98579         0.076462     -0.235652      0.726706
Ti       5.72516      5.67704      2.22653        -0.059945     -0.030763      2.454208
Ti       5.65428      5.75849     15.39854         0.510614     -0.577684     -0.257760
Ti       5.69256      5.83269      6.70412         0.831920     -1.098151      1.686748
Ti       5.72489      5.71710     11.05394        -0.137145     -0.253597      0.196648
Ti       5.71794      9.53516      2.30317         0.944824      0.336064      1.351576
Ti       5.75638      9.55460     15.35181        -0.450695     -0.032949      0.030654
Ti       5.73434      9.60473      6.58230        -0.066493      0.113509      1.617618
Ti       5.67736      9.49184     11.00883         1.311069      0.923737      1.156295
Ti       9.60872      1.88157      2.37583        -0.136159      0.123647      2.087835
Ti       9.58328      1.96475     15.41056         0.271943     -1.205717      0.369928
Ti       9.56310     13.37415      2.29744         0.379560      0.294672      3.076478
Ti       9.56238     13.39185     15.34635        -0.246469      0.367267      0.835093
Ti       9.54414      1.91611      6.61995         0.254810     -0.185061      2.316711
Ti       9.48909     13.36280      6.67517         0.554859      0.592958      0.578371
Ti       9.57563      1.92895     11.02596        -0.082682     -0.833644      0.737779
Ti       9.53308     13.42058     11.01594         0.615163     -0.090148      2.685967
Ti       9.51924      5.73567      2.21048         0.471944      0.243801      2.201489
Ti       9.51364      5.75080     15.34975         0.887429      0.168548      3.605525
Ti       9.52645      5.71447      6.62463         0.337556      0.208504      1.520337
Ti       9.56904      5.72501     11.04357         0.134911     -0.025219      0.650894
Ti       9.56634      9.57517      2.28260        -0.002587     -0.192694      1.473036
Ti       9.51982      9.51781     15.33137         0.649743      0.668713      3.172288
Ti       9.60369      9.55317      6.63353        -0.455320      0.154817      3.128960
Ti       9.59372      9.50539     10.92039        -0.606467      1.115071      1.680741
O       2.03455      1.83829      0.64157        -0.144016      0.066900     -3.494359
O       2.05966      1.79857     13.59302        -0.386613      0.429794      0.988064
O       1.83146     13.46049      0.50553         0.098328     -0.041796     -2.133422
O       1.83879     13.56069     13.68587         0.085436     -0.479532     -1.849967
O      13.50841      2.02640      0.64054        -0.041173     -0.426945     -0.914698
O      13.51022      1.87756     13.71130        -0.333287     -0.012286     -3.191390
O      13.35700     13.35892      0.60994         0.164072      0.198326     -2.105816
O      13.53938     13.51368     13.61783        -0.272955     -0.300344     -1.486060
O       1.86117      1.99381      4.93823         0.219400     -0.359141     -1.185000
O       1.87484     13.36294      4.97001         0.242142     -0.066456     -1.413729
O      13.50637      1.80101      4.96209        -0.084885      0.328336     -2.299528
O      13.34463     13.44378      4.92240         0.407259     -0.194981     -1.070345
O       2.02642      1.93590      9.28213        -0.396286     -0.149161     -1.568395
O       1.89333     13.48999      9.28106         0.235443     -0.496816     -1.220742
O      13.52871      1.96894      9.36081        -0.418508     -0.013894     -2.872549
O      13.30719     13.49737      9.36464         0.034082     -0.492684     -1.614328
O       1.85005      5.61306      0.62740         0.093380      0.430298     -1.479522
O       1.88105      5.78504     13.59877         0.238608      0.066843     -0.953170
O      13.44892      5.76724      0.62862         0.012669     -0.275158     -3.261785
O      13.50476      5.71105     13.62885        -0.121310     -0.165802     -0.389937
O       1.80814      5.71598      4.86238         0.075787      0.036202     -1.005750
O      13.58128      5.73431      4.91915        -0.666449      0.217476     -1.281033
O       1.83670      5.84665      9.27686         0.043963     -0.153596     -0.413096
O      13.41769      5.71035      9.36827        -0.160790     -0.009447     -1.417288
O       1.75146      9.63142      0.56335         0.809733     -0.549757     -0.570165
O       1.91503      9.59277     13.63234        -0.137321     -0.174928     -1.546643
O      13.27699      9.50282      0.58085         0.408907      0.078609     -1.424803
O      13.32953      9.54981     13.66928         0.239549     -0.014254     -0.527815
O       2.07851      9.49259      4.89041        -0.646255      0.604675     -0.688287
O      13.47599      9.61913      4.91626        -0.323781     -0.090717     -1.917580
O       1.84034      9.56034      9.14540         0.209474      0.239409      2.332952
O      13.30051      9.58883      9.32856         0.099746     -0.075102     -2.467571
O       5.66352      1.68215      0.61308         0.227078      0.209716     -2.726641
O       5.70987      1.87593     13.58000        -0.074401      0.159049     -0.734265
O       5.62861     13.33066      0.65864         0.537385      0.209555     -2.718620
O       5.71141     13.41157     13.55684         0.024754     -0.095431     -0.281602
O       5.65277      1.86960      4.92420         0.227408     -0.052220     -1.288742
O       5.48959     13.51279      4.91171         0.453304     -0.178860     -1.953667
O       5.76918      1.94658      9.35714        -0.128618      0.104858     -2.334590
O       5.70651     13.42866      9.24434         0.039467     -0.124986     -0.239787
O       5.86851      5.77075      0.52877        -0.502734     -0.093066     -1.635687
O       5.75957      5.72613     13.61458        -0.389570      0.126991      0.696550
O       5.84166      5.84543      5.03604        -0.294302      0.017722     -2.117814
O       5.72543      5.77969      9.31992        -0.018442     -0.097531     -1.386733
O       5.65933      9.60093      0.57134         0.074693     -0.215227     -0.972935
O       5.80630      9.58202     13.60101        -0.365003     -0.335148     -0.167124
O       5.87488      9.39817      4.87646        -0.502308      0.325654     -0.852795
O       5.72709      9.48755      9.28935        -0.093108      0.241234     -0.671305
O       9.63786      1.81279      0.70516        -0.267006     -0.065148     -2.947130
O       9.62546      2.01523     13.69383        -0.162181     -0.222554     -0.578892
O       9.56742     13.40387      0.62034        -0.255168      0.076835     -2.853022
O       9.43104     13.35138     13.62229         0.274329      0.031690     -0.450166
O       9.55964      2.13575      4.92299         0.194089     -0.505892     -1.692238
O       9.58885     13.29621      4.97631         0.029642     -0.119961     -1.116858
O       9.63127      1.90301      9.28691        -0.106211      0.122311     -0.124915
O       9.54911     13.48080      9.33398        -0.062293     -0.104725     -2.582267
O       9.55712      5.94251      0.49053        -0.376785     -0.794398     -0.639311
O       9.39125      5.61640     13.69449         0.358498      0.297064     -2.858702
O       9.64520      5.71079      4.92230        -0.088501     -0.178588     -1.275621
O       9.58868      5.72474      9.32306         0.016383     -0.245979     -0.345338
O       9.47705      9.55250      0.57026         0.217388     -0.063900     -0.970010
O       9.53879      9.65778     13.67280        -0.046457     -0.285132     -2.561721
O       9.64760      9.76120      4.97725        -0.006809     -0.265272     -2.817032
O       9.51611      9.62306      9.18993         0.403395     -0.224111     -0.128263
O       3.84273      1.87438      2.80071         0.233329     -0.223753     -0.175501
O       3.83438      1.90129     15.83518         0.732144      0.121548      0.025851
O       3.85085     13.42085      2.71595        -0.318007      0.221576     -0.045961
O       3.83118     13.42351     15.76831         0.123875     -0.699848      0.031751
O       0.04965      1.87901      2.73659        -0.750397      0.079298      0.112007
O       0.00318      1.83057     15.70075         0.690522     -0.005946      0.690557
O       0.01139     13.43492      2.78488        -0.147423     -0.360409     -0.360542
O      15.30827     13.40075     15.78572         0.365777      0.337204      0.275859
O       3.83369      1.96616      7.10419        -0.612267     -0.076047      0.008269
O       3.80307     13.53683      7.13552        -0.473285     -0.875005      0.203692
O      15.35148      1.85809      7.14117        -0.016682      0.503753     -0.124815
O      15.35180     13.37700      7.12814        -0.348463     -0.007654     -0.153872
O       3.80532      1.96681     11.49253         0.096403     -0.466350     -0.141207
O       3.77337     13.42012     11.42805         0.640832     -0.180691      0.067249
O      15.31589      1.91816     11.50221         0.057183     -0.454113     -0.269169
O      15.31458     13.30870     11.37485         0.206805      0.250380      0.380238
O       3.81777      5.68427      2.75406         0.183271      0.312939     -0.258253
O       3.76730      5.70081     15.89290         0.029753     -0.048182     -0.299167
O      15.31270      5.77554      2.71127         0.799274     -0.419147      0.217203
O      15.34826      5.61569     15.76375        -0.287841      0.463240      0.123150
O       3.75906      5.79291      7.06235        -0.060984      0.170331     -0.131135
O      15.26725      5.77742      7.11670         0.211219      0.116318     -0.096313
O       3.81589      5.79362     11.40412        -0.464755     -0.175359      0.486229
O      15.35785      5.64098     11.43150        -0.194528      0.332454      0.306782
O       3.86534      9.45412      2.77169        -0.349604      0.606512     -0.457624
O       3.77501      9.50859     15.79969         0.010490      0.271087      0.034204
O       0.05880      9.63336      2.68378        -0.075082     -0.206128      0.265614
O      15.26275      9.41107     15.83679         0.469322      0.814407     -0.460442
O       3.81509      9.54271      7.01734         0.056891      0.038169      0.157893
O      15.27853      9.69582      7.06147         0.386017     -0.517697     -0.130039
O       3.78814      9.56997     11.43670        -0.392135     -0.191787      0.032216
O      15.28952      9.55990     11.40520         1.542968      0.325828      0.177361
O       7.69804      1.89283      2.79797        -0.260008      0.128327     -0.170368
O       7.65064      1.91245     15.77585        -0.350613      0.000422      0.273744
O       7.67195     13.30869      2.86202         0.125363      0.327272     -0.627014
O       7.62524     13.33265     15.81391        -0.278127      0.339440      0.118799
O       7.62913      1.90165      7.14160         0.035835      0.130860     -0.139297
O       7.56316     13.39840      7.02871         0.742335      0.012110      0.306933
O       7.70483      1.83760     11.46578        -0.320439      0.149101      0.048207
O       7.63615     13.49885     11.53564        -0.234537     -0.401070     -0.550728
O       7.59837      5.70007      2.78104         0.604283     -0.136874     -0.476005
O       7.61182      5.68444     15.81591         0.066117      0.339302     -0.001451
O       7.66676      5.83004      7.12092        -0.104142     -0.277720      0.103082
O       7.61873      5.80770     11.49887         1.305470     -0.525458     -0.052149
O       7.67348      9.62300      2.78290        -0.021735     -0.170768     -0.335362
O       7.61711      9.44732     15.82677        -0.390432      0.348106     -0.190667
O       7.67759      9.65882      7.12831        -0.492113     -0.433089     -0.227104
O       7.71854      9.47372     11.44755        -0.303190      0.296397     -0.233920
O      11.54448      1.90240      2.74338         0.074143      0.079041      0.476795
O      11.54244      1.77597     15.87602        -0.891657      0.861686     -0.219738
O      11.51747     13.32780      2.76700        -0.040253      0.512245     -0.050459
O      11.48420     13.41527     15.69883        -0.367745     -0.151581      0.193436
O      11.54174      1.86108      7.09089        -0.323166      0.172099     -0.176037
O      11.49859     13.42518      7.06982        -0.289260      0.149114      0.366289
O      11.52571      1.85884     11.65961        -0.465145      0.530223     -0.910665
O      11.48753     13.31611     11.52241        -0.165046      0.598011     -0.059751
O      11.49960      5.81993      2.59249        -0.621745      0.025239      0.516677
O      11.45652      5.63797     15.81040         0.356430      0.227069     -0.192681
O      11.45927      5.63911      7.16751         0.345721      0.716468     -0.412037
O      11.52421      5.62934     11.54317        -0.623715      0.319220     -0.271626
O      11.54453      9.46877      2.69924        -0.389388      0.170377      0.292975
O      11.44728      9.52728     15.74520        -0.334875      0.224368      0.509238
O      11.49980      9.64099      7.11181        -0.446312     -0.129943      0.009265
O      11.51471      9.43797     11.48158        -0.915342      0.599153     -0.225229
O       1.89809      3.79281      2.70309        -0.013575      0.751671      0.381892
O       1.91749      3.79091     15.79940         0.127585      0.130293     -0.046441
O       1.91302     15.30994      2.72500         0.070278      0.097471      0.026510
O       2.03448     15.34019     15.76512        -0.576579      0.245574      0.508469
O      13.40443      3.86260      2.83282         0.298934     -0.675611     -0.196267
O      13.45154      3.76015     15.88799        -0.378646      1.055863     -0.101799
O      13.43337     15.31081      2.73683         0.058701      0.417914     -0.045900
O      13.40407     15.32389     15.89124         0.216361     -0.149070     -0.087144
O       1.82930      3.85756      7.06357         0.191212      0.169607      0.005713
O       1.90944     15.35834      7.14315        -0.106166      0.014918     -0.406538
O      13.37984      3.85318      7.08166         0.398551     -0.242945     -0.131603
O      13.49279     15.32544      7.16907        -0.363577      0.006260     -0.236003
O       1.90886      3.77494     11.33936         0.003310      0.761872      0.524873
O       1.87417     15.33008     11.40861        -0.017923     -0.211083      0.059496
O      13.47684      3.74394     11.58924        -0.478730      0.518797     -0.379537
O      13.34906     15.30136     11.40679         0.308059      0.243661      0.306217
O       1.90321      7.65780      2.86863         0.142506      0.095608     -1.072910
O       1.81713      7.60794     15.95568         0.720447      0.032452     -0.856054
O      13.54859      7.65921      2.78817        -0.464101      0.375592      0.036848
O      13.28188      7.59989     15.70266         0.496255     -0.189234      0.518864
O       1.77250      7.69874      7.04503         0.124445     -0.510392     -0.127050
O      13.31263      7.69309      7.13008         0.168708     -0.155909     -0.375052
O       1.83001      7.64674     11.42308         0.175483      0.986926      0.237002
O      13.46823      7.63775     11.55118        -0.195321     -0.818201     -0.268422
O       1.98462     11.52602      2.65553         0.098312     -0.594864      0.237280
O       1.85730     11.44566     15.89319         0.017046      0.077586     -0.733107
O      13.47876     11.47156      2.70317        -0.063855     -0.196900      0.175621
O      13.45398     11.48247     15.86233        -0.459627      0.138969     -0.354763
O       1.95547     11.49097      7.16851        -0.056827      0.102798     -0.351406
O      13.39048     11.48221      7.15035        -0.152226      0.874362     -0.141285
O       1.91157     11.54367     11.56784        -0.049010     -1.181243     -0.536232
O      13.36376     11.39289     11.57103         0.252829      0.690283     -0.394221
O       5.71545      3.75066      2.69349         0.105354      0.387165     -0.188109
O       5.74467      3.81465     15.90817        -0.174615     -0.425247     -0.489663
O       5.98257     15.31794      2.77826        -1.395939     -0.228679     -0.566952
O       5.68356     15.30731     15.70896         0.506511      0.361385      0.241289
O       5.76362      3.84815      6.94702        -0.183714      0.330182      0.755895
O       5.68320     15.34493      7.06602         0.267226      0.401118      0.271427
O       5.74634      3.84370     11.42060         0.075754     -0.375190      0.453575
O       5.68660     15.35769     11.33871         0.065347     -0.646778      0.463477
O       5.77939      7.59839      2.75077        -0.072560      0.322454     -0.462744
O       5.51733      7.61146     15.74263         0.919335      0.390706      0.196143
O       5.73481      7.72257      7.18938         0.119709     -0.212115     -0.199635
O       5.74336      7.60908     11.40438        -0.280331      1.037489      0.757909
O       5.75859     11.44589      2.72788        -0.467923      0.002452      0.239461
O       5.73842     11.45457     15.67944        -0.231570      0.070163      0.490935
O       5.70611     11.51479      6.86232        -0.371380     -0.479713      0.564335
O       5.71818     11.45810     11.34090         0.029694      0.305954      0.358009
O       9.57980      3.84287      2.68736         0.224413      0.242033     -0.135511
O       9.64487      3.82776     15.86783        -0.625797     -0.263843      0.182912
O       9.63468     15.28239      2.82235        -0.333520      0.302952     -0.077263
O       9.47659     15.31951     15.67814         0.246665     -0.051355      0.605837
O       9.51800      3.80144      7.08332         0.122612      0.326260      0.364987
O       9.46608      0.01804      6.97181         0.452626     -0.664235      0.393493
O       9.53750      3.74905     11.60006         0.227308      1.227390     -0.668233
O       9.62240     15.32037     11.46189         0.094409      0.363665      0.296088
O       9.48730      7.64499      2.69265         0.337995      0.008837      0.213904
O       9.56824      7.64086     15.82013        -0.147262     -0.327378     -0.465024
O       9.62206      7.66177      6.95569         0.164387     -0.025202      0.360805
O       9.61878      7.65349     11.37596         0.033277     -0.926267      0.283088
O       9.70064     11.49500      2.68017        -0.418765     -0.737853      0.110638
O       9.56980     11.43787     15.84814        -0.357938      0.505254     -0.035691
O       9.56584     11.49473      7.16021         0.046294      0.403247      0.255211
O       9.59037     11.52241     11.43199        -0.296439     -0.973690     -0.165256
