  # total energy = -7881.32661462 
CRSYTAL
PRIMVEC
    15.3600000000000000    0.0000000000000000    0.0000000000000000
     0.0000000000000000   15.3600000000000000    0.0000000000000000
     0.0000000000000000    0.0000000000000000    17.440000000000000
PRESSURE
1.75261 1.72231 4.62926 -0.191538 -0.357675 -0.073147
PRIMCOORD
320 1
Pb       3.83931      3.85942      4.24269         0.027397     -0.469158      0.305779
Pb       3.76764      3.90021     17.36405        -0.250933     -0.189160     -0.372860
Pb       3.88894     15.35560      4.23329        -0.672902      0.111316      0.239377
Pb       3.97689      0.01327      0.02519        -0.473582     -0.223235     -0.168669
Pb      15.26279      3.93564      4.30412        -0.025095     -0.711945     -0.531302
Pb      15.20761      3.71550     17.36143         0.089029      0.827372     -0.144146
Pb      15.25787     15.33819      4.36624         0.670552     -0.028232     -0.447126
Pb       0.15261      0.03072     17.39040        -0.781057     -0.096600      0.320417
Pb       3.98032      3.88954      8.57812        -0.773584     -0.619651      0.240692
Pb       3.78817     15.27051      8.72097        -0.091980      0.147060     -0.195196
Pb       0.16160      3.70853      8.67210        -0.142241     -0.069493      0.197315
Pb       0.16838     15.29385      8.58143        -0.617711      0.073402      1.074104
Pb       3.90648      3.94523     13.08038        -0.600861     -0.025041      0.398476
Pb       4.02742      0.00586     13.22381        -0.693736     -0.035722     -0.231258
Pb      15.25490      3.89504     12.93347         0.169674     -0.757072      0.852149
Pb      15.31125      0.01721     13.00933         0.512161      0.135835      0.214267
Pb       3.77750      7.65761      4.32764         0.254161     -0.388643     -0.137620
Pb       3.87055      7.78167     17.43324        -0.007358     -0.570134      0.094707
Pb      15.18263      7.45659      4.30081         0.425732      1.054286     -0.007095
Pb       0.21573      7.63751     17.42336        -1.389343     -0.273141     -0.013001
Pb       3.77640      7.60155      8.64364         0.595596      0.056696      0.201452
Pb      15.29537      7.71373      8.63465         0.339638      0.178770      0.224928
Pb       3.84226      7.82415     13.09270        -0.259413     -0.939350     -0.410622
Pb      15.29371      7.74896     12.92024         0.630900     -0.482817      0.113525
Pb       3.87340     11.40444      4.37373        -0.025261      0.533678     -0.054728
Pb       3.69358     11.45266      0.01138         0.314436      0.573785     -0.334216
Pb      15.32923     11.39165      4.30940         0.065942      0.058416      0.183752
Pb       0.09028     11.38582      0.10107        -0.327771      0.484040     -1.035445
Pb       3.75148     11.47799      8.66307         0.184978      0.237424      0.020019
Pb       0.10241     11.64231      8.60306        -0.205050     -0.787959      0.300541
Pb       3.74015     11.58792     13.00971        -0.291942     -0.250712      0.182860
Pb      15.11617     11.43925     12.96949         1.199608      0.094782      0.483500
Pb       7.56902      3.95567      4.23693         0.449985     -0.272689      0.513588
Pb       7.69765      3.82317     17.37730        -0.106204     -0.066911     -0.466760
Pb       7.55206     15.32513      4.22209         0.498160      0.055248      0.729005
Pb       7.82365     15.25211      0.01538        -0.428362      0.451616     -0.279192
Pb       7.70667      3.79474      8.65603        -0.057791      0.053301      0.270267
Pb       7.70051      0.08416      8.68973        -0.039099     -0.599927     -0.209865
Pb       7.50678      3.66158     13.01447         0.386331      0.594991      0.059021
Pb       7.72642     15.07497     13.13438        -1.143099      0.945142      0.272296
Pb       7.61569      7.79417      4.37050         0.041857     -0.567941     -0.272061
Pb       7.75549      7.51735     17.36177        -0.407978      0.636320      0.434820
Pb       7.65880      7.58895      8.71704        -0.182060      0.106143      0.013916
Pb       7.76929      7.63322     13.08635        -0.577199      0.271984     -0.539422
Pb       7.65631     11.49534      4.27433         0.169076      0.241630      0.066381
Pb       7.68389     11.44525     17.31813         0.062586      0.279676      0.523569
Pb       7.76099     11.45559      8.79931        -0.659113      0.256954     -0.299319
Pb       7.57759     11.53412     13.06770        -0.182280     -0.912659      0.073658
Pb      11.58999      3.92157      4.36311        -0.790023     -0.210657     -0.080659
Pb      11.29006      3.78176     17.34503         0.791772      0.307756     -0.599521
Pb      11.51931      0.13903      4.32005        -0.584431     -0.401868      0.317296
Pb      11.68513      0.05654     17.34376        -0.387469      0.006841     -0.385471
Pb      11.69212      3.69306      8.67696        -1.045646     -0.037215      0.201022
Pb      11.51780     15.35595      8.65220        -0.449917     -0.252739     -0.203049
Pb      11.41471      3.91103     12.87243         0.194863     -0.666064      1.072505
Pb      11.42361     15.30316     13.11191         0.634307      0.514514     -0.449547
Pb      11.53521      7.66657      4.39544        -0.169497      0.361319      0.034206
Pb      11.42577      7.68041     17.32497         0.650984     -0.138529     -0.107270
Pb      11.47770      7.59355      8.66409        -0.150409      0.586404     -0.031570
Pb      11.62063      7.68202     13.00893        -0.194934      0.396243     -0.262656
Pb      11.39406     11.56646      4.36112         0.243207     -0.309580      0.019948
Pb      11.63154     11.57045     17.40149        -0.401540     -0.342760      0.258208
Pb      11.35371     11.52877      8.75443         0.788423     -0.046188     -0.704831
Pb      11.40757     11.59056     13.05698         0.360518     -1.126214     -0.011223
Ti       1.86329      1.93195      2.29678        -0.055396     -0.757805     -0.145192
Ti       1.89383      2.00274     15.36104        -0.254393     -0.237485      3.358087
Ti       1.78709     13.38701      2.38514         0.525535      0.372750      1.554517
Ti       1.90032     13.55007     15.44013        -0.185125     -1.001582     -0.382134
Ti      13.40218      1.91243      2.32995         0.267384      0.405302      0.104571
Ti      13.42271      1.97181     15.24218        -0.604178      0.244839     -0.137289
Ti      13.34906     13.48229      2.38791         0.503253     -0.787789      1.732649
Ti      13.46925     13.40811     15.36184         0.217297     -0.243125      1.995532
Ti       1.87687      1.85361      6.54110         1.092230      0.221369      2.548989
Ti       1.87608     13.35074      6.52475         0.854279      0.245875      0.176888
Ti      13.46432      1.82504      6.69419        -0.569576      0.123104      0.198821
Ti      13.37533     13.38440      6.62453        -0.507704     -0.288321      2.366079
Ti       1.93799      1.94926     11.08905        -1.110215     -1.141804      0.714013
Ti       1.85453     13.44374     11.10007         0.475574     -0.242979      0.406836
Ti      13.32812      1.77103     11.05036         1.129181      0.600748      2.905885
Ti      13.39004     13.39889     11.06560         0.962405      0.017900      1.438899
Ti       1.88208      5.69456      2.30194        -0.522242      0.282085      0.554073
Ti       1.89608      5.82281     15.39388        -0.222946     -1.414292     -0.660143
Ti      13.31168      5.75969      2.22468        -0.102449     -0.326394     -1.337565
Ti      13.40775      5.77129     15.33725         0.099820      0.047084      2.156662
Ti       1.78977      5.71406      6.59528         1.571547     -0.340499      1.331151
Ti      13.43329      5.69680      6.79112        -0.421308      0.017706      0.221775
Ti       1.93409      5.69224     10.99085         0.292670      0.792118      2.509928
Ti      13.44382      5.67704     10.92943         0.301191      0.202662      2.011482
Ti       1.94505      9.53565      2.42875        -0.215969     -0.328443      1.574885
Ti       1.92774      9.59325     15.32173        -0.777232      0.208345     -0.115865
Ti      13.41404      9.62299      2.29861        -0.164110      0.019548      2.054520
Ti      13.43082      9.51209     15.40598         0.086425      0.517135      1.238146
Ti       1.98892      9.44044      6.65976        -1.051653      1.559798      0.328000
Ti      13.43637      9.57123      6.73889        -0.482935      0.298254      1.596356
Ti       1.96973      9.55537     10.99263        -0.504806      0.663975      1.193746
Ti      13.46445      9.59304     10.89931        -1.361620     -0.089833      2.251278
Ti       5.76888      1.92377      2.25295        -0.829751     -0.115877      0.419234
Ti       5.70360      1.93041     15.52485         0.893345     -0.784228     -1.446868
Ti       5.63190     13.39955      2.33443         0.531289     -0.363568     -0.585074
Ti       5.72951     13.37235     15.48666        -0.139169      0.460152      2.021493
Ti       5.65154      1.84435      6.67073         0.158470     -0.046646     -0.295930
Ti       5.70138     13.39623      6.67691        -0.016276     -0.275832      1.442634
Ti       5.66466      1.82595     11.09769        -0.394630      0.457355      0.301866
Ti       5.67108     13.35865     11.04308         0.107592      0.724337      0.271580
Ti       5.67452      5.73802      2.17160         0.687782      0.456904      1.225680
Ti       5.74167      5.77875     15.44539        -0.644275     -0.586450      0.663895
Ti       5.72220      5.73095      6.62966        -0.045891      0.164361      0.152235
Ti       5.69815      5.75605     11.05164         0.398086      0.018895      2.401878
Ti       5.79149      9.57701      2.27538        -0.282074     -0.217006      1.413891
Ti       5.77328      9.51821     15.40655         0.313603      0.704752      0.972568
Ti       5.78959      9.59168      6.69523        -0.330404     -0.155250      2.186513
Ti       5.72139      9.55014     10.98869         0.519740     -0.010501      0.691565
Ti       9.53409      1.99840      2.37471        -0.171382     -0.238696      0.988375
Ti       9.52546      1.91667     15.25886        -0.194571      0.262559      1.384962
Ti       9.54116     13.47966      2.34042        -0.024724     -0.408784      1.649938
Ti       9.62494     13.42569     15.41111        -0.213145      0.286077      1.675053
Ti       9.52796      1.92287      6.67523         0.258820     -0.359550      0.883864
Ti       9.46662     13.38941      6.66495         0.559970      0.967534      0.936710
Ti       9.44171      1.76458     11.09750         1.202135      1.752673      0.011487
Ti       9.58338     13.32467     11.10652        -1.084522      0.914260     -1.407492
Ti       9.54430      5.85278      2.36885        -0.218287     -1.128772      0.505328
Ti       9.57870      5.87533     15.25351         0.237428     -0.771025      1.040221
Ti       9.59776      5.71036      6.76395        -0.702118     -0.737661      0.323833
Ti       9.59767      5.77707     10.98905        -1.058051     -0.953835      0.754578
Ti       9.63716      9.56980      2.32111        -0.385740      0.720767      2.310062
Ti       9.57104      9.68134     15.39400         0.910900     -0.851698     -0.593091
Ti       9.50274      9.57650      6.66042         1.473272     -0.507428      0.254632
Ti       9.53183      9.55120     11.08617         0.947840     -0.433499      1.788217
O       1.84891      1.90815      0.50206        -0.148531      0.108593      1.017791
O       1.70867      1.89024     13.73349         0.449645     -0.002429     -3.141893
O       1.92407     13.41683      0.67684        -0.255312     -0.052613     -1.785750
O       1.97148     13.48523     13.69958        -0.325734     -0.131871      0.274131
O      13.37517      1.91848      0.58784        -0.127675     -0.122973     -0.500304
O      13.38774      1.97590     13.47038        -0.169125     -0.487241      1.085168
O      13.28594     13.35322      0.69550         0.130761      0.314123     -1.463364
O      13.37580     13.47394     13.65240        -0.133070     -0.674918     -0.958859
O       1.91683      1.84055      4.85591        -0.172245      0.193162     -1.575868
O       1.85323     13.36867      4.76588         0.128656     -0.122256      0.599974
O      13.44157      1.80676      4.94038         0.039219      0.153694     -0.044362
O      13.30552     13.47409      4.94030         0.338935      0.144823     -1.506786
O       1.84491      1.78572      9.35031         0.222297      0.392171     -0.445152
O       2.02675     13.44982      9.32577        -0.634238     -0.148142     -0.220999
O      13.41323      1.86032      9.37567         0.038092      0.077715     -2.932369
O      13.38590     13.30419      9.37816        -0.120213     -0.028530     -1.562876
O       1.79716      5.73520      0.58520         0.413710     -0.100783     -1.205293
O       2.05732      5.90724     13.66229        -0.670711     -0.286242      0.195540
O      13.22512      5.79122      0.42711         0.149968     -0.313291      2.046181
O      13.41865      5.69498     13.63394        -0.002175      0.573214     -1.789434
O       1.93702      5.84366      4.87985        -0.403128     -0.497219     -0.615126
O      13.37689      5.75960      5.03267         0.034510      0.024099     -0.787668
O       1.97670      5.56615      9.29394        -0.169803      0.355245     -1.776296
O      13.48603      5.61381      9.21419         0.089112      0.018134     -0.549575
O       1.94149      9.54811      0.72442        -0.004955     -0.157663     -2.366904
O       1.90445      9.55926     13.55669         0.010686     -0.098297      0.495104
O      13.36890      9.70784      0.59267         0.248612     -0.256979     -0.141906
O      13.49520      9.47902     13.66847        -0.279289      0.104092     -0.956950
O       1.98396      9.43169      4.91311         0.092536      0.098666     -0.477228
O      13.44942      9.43422      5.05826         0.052017     -0.101610     -2.059224
O       2.00545      9.69653      9.27779        -0.218074     -0.500228     -1.386647
O      13.45864      9.68524      9.21294        -0.039296     -0.056994     -1.626041
O       5.68761      1.84719      0.50316         0.339096      0.289412     -0.498307
O       5.79845      1.80465     13.71127        -0.366867      0.368256      0.406776
O       5.57930     13.43166      0.56666         0.432990     -0.260014      0.066430
O       5.75030     13.31608     13.79218        -0.060785      0.176289     -2.053122
O       5.65493      1.78816      4.91867        -0.207015      0.090273     -0.175548
O       5.60941     13.26738      4.95455         0.336381      0.562206     -0.846620
O       5.56930      1.97376      9.36445         0.276994     -0.470908     -0.297250
O       5.69050     13.44877      9.31182        -0.001791     -0.141800     -0.059090
O       5.75826      5.75654      0.44711        -0.331378     -0.307214     -0.359597
O       5.64493      5.73515     13.73264         0.264815      0.208396     -1.469538
O       5.61462      5.82207      4.88948         0.507052     -0.318373     -0.616987
O       5.62278      5.59654      9.37512         0.073689      0.292892     -2.309644
O       5.76269      9.51872      0.56981        -0.097797      0.495759     -1.041715
O       5.73100      9.64662     13.70137        -0.076531     -0.372153     -0.905361
O       5.76377      9.60734      4.99337         0.090468     -0.224468     -1.954573
O       5.83518      9.42737      9.26139        -0.199761      0.731073     -0.386773
O       9.33537      2.02695      0.63873         0.743199      0.067445     -0.321060
O       9.51977      1.93332     13.53152         0.027557     -0.606218     -0.660365
O       9.43564     13.44717      0.64743         0.571096      0.070266     -1.898151
O       9.54161     13.27662     13.68400         0.354200      0.533867     -1.550543
O       9.56968      1.82049      4.97420        -0.020359      0.391816     -1.428937
O       9.40831     13.32798      4.94018         0.373604      0.208203     -0.431403
O       9.61334      1.87130      9.34617        -0.493985     -0.318962     -0.069484
O       9.37350     13.50365      9.33303         0.921093     -0.503220      0.673241
O       9.48338      5.77058      0.62900         0.601024     -0.064051     -1.257577
O       9.49057      6.04284     13.54490         0.554100     -0.564000     -0.387520
O       9.46731      5.52852      5.01663         0.455724      0.862179      0.368533
O       9.51382      5.73269      9.24348         0.306877      0.033694     -0.006532
O       9.57669      9.67086      0.65483        -0.032642     -0.383282     -2.615368
O       9.57407      9.50533     13.63793         0.224762      0.406213     -0.178610
O       9.54973      9.59171      4.90597        -0.440239     -0.247211      0.275642
O       9.42763      9.58808      9.40274         0.169833      0.050510     -2.908398
O       3.81007      1.94918      2.65384        -0.286750     -0.217745      0.133861
O       3.79323      1.88485     15.80518        -0.016554      0.361709      0.002802
O       3.78429     13.33914      2.74100        -0.023010      0.154942      0.183227
O       3.77180     13.43110     15.87620         0.414014     -0.223191      0.030352
O      15.27323      1.98030      2.70048         0.293772     -0.290023      0.267452
O      15.26315      1.99860     15.74705        -0.386753     -0.570794      0.238789
O      15.28637     13.36428      2.77411        -0.500013      0.247091      0.059247
O      15.34804     13.38601     15.94047        -0.050094      0.038824     -0.266949
O       3.76532      1.83877      7.12806        -0.315003      0.301825     -0.414409
O       3.77409     13.35697      7.15526        -0.093295      0.163577     -0.653953
O       0.00073      1.83453      7.16469        -0.385254      0.146846     -0.547066
O       0.03015     13.43436      7.08491        -0.487841     -0.467154     -0.543074
O       3.75529      1.82838     11.61845         0.767870     -0.415275     -0.076162
O       3.78548     13.45091     11.58330         0.498178     -0.037308     -0.334098
O      15.34187      1.96411     11.47845        -0.158703     -0.136834     -0.105449
O      15.33400     13.31638     11.53895        -0.733892     -0.041563     -0.397677
O       3.76135      5.59448      2.72357         0.860644      0.286925     -0.625704
O       3.83214      5.81777     15.73123        -0.836485     -0.658810      1.080764
O      15.28723      5.74413      2.67646        -0.755884     -0.142993      0.207978
O      15.24479      5.75768     15.78422         1.116148      0.242629      0.150766
O       3.81963      5.86478      7.01673        -0.434026     -0.911033      0.210566
O      15.32360      5.73462      7.08481         0.779576      0.275201     -0.004731
O       3.77697      5.74831     11.61808         0.681915      0.502825     -0.729063
O       0.04889      5.74120     11.57454        -1.005716     -0.191462     -1.343959
O       3.89337      9.66065      2.80924        -0.331989     -0.498784     -0.305946
O       3.84289      9.50663     15.80293        -0.449646      0.204337      0.078913
O       0.03510      9.50200      2.84857        -1.414582     -0.227511     -0.484482
O       0.01355      9.51799     15.83329         0.394464      0.315812      0.162233
O       3.86351      9.57916      7.08474        -0.015315     -0.271789      0.031812
O       0.04206      9.54635      7.05430        -0.272793     -0.157635      0.408547
O       3.82180      9.62839     11.43052         0.451310     -0.155008      0.027172
O      15.31262      9.63008     11.35614        -0.019011     -0.114030      0.066907
O       7.55263      1.88777      2.83476         0.873884      0.350242     -0.310837
O       7.62171      1.91600     15.80154         1.135355     -0.012264      0.118051
O       7.68248     13.41092      2.72702        -1.110859     -0.034236      0.166173
O       7.71422     13.44309     15.85119        -0.066789     -0.146376      0.017598
O       7.61828      1.97862      7.04394        -0.282645     -0.583661      0.384120
O       7.65228     13.48627      7.20486        -0.554685     -0.344389     -0.496059
O       7.57009      1.85869     11.46644        -0.270875      0.318678     -0.219487
O       7.69275     13.31966     11.56615        -0.954974      0.254358     -0.128728
O       7.67947      5.70349      2.56995        -1.632562      0.339526      0.770415
O       7.61394      5.73090     15.73259         1.638196      0.469127      0.272579
O       7.63914      5.70081      7.18224        -0.035709     -0.334830     -0.332458
O       7.62392      5.71385     11.51148        -0.327899      0.154263     -0.462091
O       7.63414      9.47670      2.78304         0.144557      0.481872     -0.187989
O       7.72756      9.49798     15.73112        -1.066524      0.580467      0.516993
O       7.66688      9.59878      7.13351         0.192092     -0.232969     -0.096309
O       7.70384      9.62029     11.53289        -1.895758     -0.006577      0.065902
O      11.47112      1.98271      2.71815        -0.213091     -0.585786      0.053369
O      11.47754      1.96700     15.80735         0.047746     -0.656925     -0.158490
O      11.48294     13.42977      2.88443        -0.438554      0.375581     -0.453847
O      11.47594     13.36239     15.90689         0.700545      0.762844     -0.495970
O      11.50452      1.96777      7.05098         0.730569     -0.661126      0.243366
O      11.46717     13.42387      7.13614        -0.488352     -0.053584     -0.001818
O      11.47376      1.64452     11.40369        -0.782573      0.429576      0.281835
O      11.47845     13.42464     11.52812        -0.777109      0.313011     -0.091153
O      11.41391      5.74863      2.80827         1.100407     -0.214845     -0.059071
O      11.46307      5.87833     15.64928        -1.108399     -0.070467      0.249322
O      11.57012      5.65000      7.25313        -1.223156      0.389578     -0.531822
O      11.57000      5.77606     11.51964        -0.813506      0.269102     -1.083597
O      11.48530      9.58381      2.86522         1.158721     -0.152410     -0.466101
O      11.50776      9.53385     15.80459        -0.259885      0.401160     -0.015265
O      11.48104      9.41046      6.99514        -0.594052      0.385876      0.730697
O      11.47641      9.56733     11.34474         0.617235     -0.147618      0.374302
O       1.76220      3.78646      2.73470         0.499995      0.176573      0.275560
O       1.73313      3.85433     15.90446         1.189964      0.395195     -0.420046
O       1.73376     15.32054      2.79118         0.613271      0.744980     -0.460651
O       1.85121      0.05485     15.92037         0.190372     -0.352028     -0.608816
O      13.37746      3.84701      2.78170         0.005365      0.432959     -0.078149
O      13.28180      3.87995     15.72700         0.246296     -0.899676      0.202302
O      13.44009      0.01883      2.84548        -0.391941     -0.022287     -0.582534
O      13.41771     15.29605     15.67535        -0.388253      0.971460      0.498759
O       1.84551      3.78348      6.99685         0.099697      0.621832     -0.285024
O       1.84888     15.32452      7.02431         0.515215     -0.597880     -0.446066
O      13.47368      3.78653      7.02808         0.220881     -0.729825      0.331694
O      13.39999     15.24290      7.17992         0.199497      1.267190     -0.368243
O       1.97997      3.82541     11.44184        -0.252091     -0.155716      0.082754
O       1.77359     15.26726     11.56324         0.361170      0.922875     -0.440836
O      13.28472      3.77117     11.52431         0.579868      0.636568     -1.183231
O      13.49201     15.25404     11.51651        -0.455422      0.375777     -0.272910
O       1.91318      7.53967      2.72385         0.325671      1.092624      0.122547
O       1.87399      7.61634     15.84336         0.320382      1.664352      0.205386
O      13.29869      7.58560      2.81308         0.452774      0.935928     -0.505407
O      13.41401      7.70955     15.92523        -0.089040     -0.273397     -0.385409
O       1.95576      7.63721      7.16065        -0.632396     -0.748943     -0.134457
O      13.40625      7.60060      7.26247         0.311768      0.253722     -0.185099
O       1.91201      7.66179     11.36765        -0.087926      0.105445     -0.138092
O      13.45822      7.62216     11.30336         0.068688      0.283817     -0.127620
O       1.81048     11.42867      2.61202         0.146802      0.294186      0.742036
O       1.88174     11.43712     15.82523         0.298028      0.181318      0.287571
O      13.47762     11.52287      2.91059        -0.659905     -1.030870     -0.740543
O      13.38632     11.48780     15.91001         0.478739      0.045998     -0.619498
O       1.90461     11.44562      7.03585         0.064231      0.489213     -0.182309
O      13.30962     11.49813      7.02606         0.512936     -0.193026      0.204972
O       1.88196     11.47126     11.37503         0.231181      0.366177      0.588762
O      13.27501     11.49296     11.57255         0.353279     -0.370484     -0.454559
O       5.77616      3.81755      2.61090        -0.432794      0.307609      0.081739
O       5.76059      3.81580     15.80946        -0.491590      0.215756      0.345685
O       5.69678     15.32578      2.70656        -0.084666     -0.048123     -0.140551
O       5.78288     15.31144     15.85304        -0.481211     -0.120074      0.167670
O       5.68839      3.76703      6.93167        -0.222530      0.816377      0.456951
O       5.59995     15.30661      7.14371         0.767555     -0.000541     -0.307723
O       5.54860      3.80534     11.46640         0.869239     -0.336632      0.265136
O       5.73606     15.25960     11.60180         0.194482      0.189224     -0.361420
O       5.65065      7.62042      2.59486         0.061238      0.052650      0.341833
O       5.71398      7.63869     16.02229         0.492226      0.713877     -1.002983
O       5.79626      7.60918      7.08966        -0.005997      0.533503      0.026127
O       5.69481      7.71560     11.37257         0.033566     -0.724233      0.376127
O       5.81518     11.54168      2.81002        -0.369772     -0.938257     -0.546060
O       5.84621     11.46214     15.85980        -0.604103     -0.258920      0.068847
O       5.79499     11.49672      7.12991        -0.134259     -0.029984      0.016676
O       5.65876     11.51487     11.49386         0.476157     -0.355204     -0.204458
O       9.55740      3.86330      2.89088        -0.153774     -0.539753     -0.518724
O       9.57809      3.82761     15.59733        -0.133175      0.727926      0.571627
O       9.40349      0.03790      2.74463         1.049825      0.148593     -0.147363
O       9.64829      0.03453     15.85461        -0.179879     -0.459048     -0.397123
O       9.56756      3.78709      7.28266         0.329712      0.483351     -0.555457
O       9.53056      0.00402      7.12904         0.269550     -0.098757     -0.005864
O       9.51482      3.84121     11.48816         0.322939     -0.201683     -0.396751
O       9.37264     15.32814     11.54171         0.933493     -1.362412     -0.016373
O       9.56492      7.68280      2.84355         0.011173     -0.098900     -0.030402
O       9.54950      7.76340     15.82102         0.003471     -1.395512      0.050090
O       9.49558      7.61844      7.18341         0.422401      0.083984     -0.488408
O       9.50065      7.63598     11.39000         0.277760     -0.301790      0.139889
O       9.60520     11.48131      2.72109        -0.303640      0.258531      0.303277
O       9.64889     11.55250     15.80527        -0.542268     -0.516523      0.153412
O       9.61077     11.46760      7.09863        -0.310004      0.074272      0.289555
O       9.49658     11.46483     11.33632         0.886550      1.079631      0.628848
