  # total energy = -7877.08749001 
CRSYTAL
PRIMVEC
    15.2000000000000000    0.0000000000000000    0.0000000000000000
     0.0000000000000000   15.2000000000000000    0.0000000000000000
     0.0000000000000000    0.0000000000000000    17.000000000000000
PRESSURE
6.97051 7.30548 1.98915 0.469966 0.063342 -0.047839
PRIMCOORD
320 1
Pb       3.87969      3.75725      4.21680        -0.213900      0.257366     -0.246116
Pb       3.58146      3.69223      0.03408         0.647274      0.342761     -0.186569
Pb       3.91195     15.01995      4.25127        -0.442631      0.533634     -0.605957
Pb       3.76715     15.16925      0.02332        -0.330777     -0.152176     -0.294810
Pb      15.14722      3.75910      4.28971        -0.314552     -0.043472     -0.381211
Pb      15.09214      3.78243     16.97563        -0.244840     -0.096695     -0.322885
Pb      15.18788     15.04789      4.10875         0.248871     -0.330209      0.369835
Pb      15.16952      0.04275     16.98353         0.261048     -0.092760     -0.162462
Pb       3.60207      3.71126      8.56452        -0.072072      0.539914     -0.498318
Pb       3.74696      0.13941      8.25844        -0.156530     -0.548612      0.748707
Pb      15.02425      3.81967      8.35524         0.914602      0.219800      0.188316
Pb       0.18181      0.06737      8.50600        -0.327963     -0.199879     -0.252288
Pb       3.75523      3.78899     12.85920        -0.078730      0.081790     -0.594655
Pb       3.79063     15.10199     12.63429         0.592360      0.705556      0.198879
Pb       0.02038      3.62669     12.81884        -0.412835      0.718244     -0.137325
Pb      15.11805     15.07399     12.59118        -0.185099      0.502339      0.562044
Pb       3.79757      7.51795      4.17160        -0.406264      0.084344      0.086988
Pb       3.77279      7.50812      0.10547         0.111331      0.019930     -0.814099
Pb       0.02089      7.39994      4.19480        -0.254773      1.135772      0.432751
Pb       0.10975      7.61810      0.15618        -0.418710      0.261151     -0.943411
Pb       3.70757      7.51664      8.56859         0.536513      0.224373     -0.146907
Pb       0.03735      7.66374      8.51658        -0.231684     -0.085124     -0.064529
Pb       3.81053      7.75640     12.87149         0.350345     -1.049228     -0.867936
Pb      15.16111      7.73609     12.82247         0.372334     -0.807000     -0.239024
Pb       3.95631     11.35832      4.18739        -0.910130      0.303507     -0.212161
Pb       3.65267     11.37277     16.76678         0.287944      0.270261      0.761727
Pb      15.17864     11.27016      4.24981         0.392330      0.882579     -0.057416
Pb      15.13688     11.40522      0.05103         0.476275     -0.489945     -0.416978
Pb       3.81588     11.33374      8.35292         0.038054      0.025155      0.573864
Pb      15.19258     11.34215      8.47036         0.029018     -0.253243     -0.041530
Pb       3.87027     11.41911     12.67898         0.067769      0.495769      0.306228
Pb       0.00224     11.57795     12.54543         0.343869     -0.817952      0.773358
Pb       7.64720      3.83186      4.26663        -0.555628     -0.440540     -0.374120
Pb       7.60325      3.77495     16.94521        -0.485492      0.109664     -0.153475
Pb       7.58714      0.09766      4.26745         0.371254      0.044273     -0.921118
Pb       7.50096      0.03600     16.97963         0.407093     -0.334172      0.354746
Pb       7.45193      3.84684      8.53459         0.076186     -0.354209     -0.070984
Pb       7.52125      0.01710      8.50877        -0.199386      0.200344     -0.214281
Pb       7.57044      3.66210     12.66140        -0.143646      0.452271      0.453842
Pb       7.65772      0.04648     12.68342        -0.661758     -0.372387      0.005645
Pb       7.41241      7.61073      4.35462         0.273804     -0.254779     -0.744196
Pb       7.63559      7.38957     16.95537        -0.538808      1.174533     -0.178668
Pb       7.62601      7.53301      8.62420        -0.623080     -0.148693     -0.598832
Pb       7.77545      7.56779     12.85415        -0.787168     -0.267592     -0.210429
Pb       7.67965     11.43774      4.14437        -0.062213      0.473254      0.352797
Pb       7.58908     11.29801     16.96326        -0.228554     -0.072311      0.161351
Pb       7.60410     11.24801      8.38321        -0.449988      0.361845      0.202052
Pb       7.64249     11.33077     12.81671         0.076942      0.233677     -0.690037
Pb      11.43213      3.70551      4.33081        -0.388011     -0.345956     -0.175144
Pb      11.42808      3.95172     16.97761        -0.045003     -0.777236     -0.093279
Pb      11.28562      0.00756      4.28059        -0.077323      0.161018     -0.249175
Pb      11.26766      0.01007     16.96584         0.470828     -0.145285      0.325650
Pb      11.32251      3.73510      8.48613        -0.517322      0.715066      0.238066
Pb      11.39022     15.13846      8.65400         0.210729      0.140581     -0.723262
Pb      11.46834      3.80264     12.70236         0.022216     -0.065287     -0.223656
Pb      11.32422     15.19632     12.83111         0.241803     -0.270442     -0.816386
Pb      11.36594      7.52144      4.34079        -0.044916     -0.375524     -0.353830
Pb      11.37203      7.55835      0.08985        -0.361247      0.342058     -0.119575
Pb      11.45042      7.68233      8.35742        -0.085493     -0.947403      0.575607
Pb      11.40523      7.59195     12.63331        -0.361446      0.109816      0.648687
Pb      11.43320     11.51189      4.26782         0.099136      0.218298     -0.247095
Pb      11.31634     11.24532      0.12040        -0.032489      0.331479     -0.029371
Pb      11.35976     11.32048      8.51067         0.297703      0.374315     -0.239779
Pb      11.50020     11.36780     13.00166        -0.449957      0.131009     -1.125303
Ti       1.77872      1.90983      2.26968         2.186446     -0.638234     -0.891600
Ti       1.83315      1.87833     15.00873         0.265770     -0.319268     -0.082042
Ti       1.95003     13.25187      2.12283        -0.291743     -0.124481     -0.303664
Ti       1.85676     13.33291     14.83854         0.554522     -0.758509      2.806405
Ti      13.23411      1.80888      2.28791        -0.298636      1.203852     -0.790246
Ti      13.17375      1.85416     14.99150         1.423024      1.017505     -0.989780
Ti      13.32818     13.27371      2.05638         0.429195     -0.555144      0.580654
Ti      13.29953     13.26587     15.01847         0.129361      0.113908     -0.348063
Ti       1.76162      1.91841      6.22368         0.483566     -0.276908      1.205382
Ti       1.84294     13.24106      6.44575         0.992918      0.386230     -0.463220
Ti      13.19163      1.82349      6.56865         0.053090      0.168049     -1.013990
Ti      13.36040     13.29530      6.46345        -0.660057      0.032106     -0.732781
Ti       1.76461      1.88342     10.80747         1.729893      0.875063     -0.938361
Ti       2.01679     13.32629     10.62911        -0.133421     -0.169036     -0.844619
Ti      13.28693      1.91671     10.64330        -0.762409      0.495478      1.358807
Ti      13.29008     13.28353     10.69619        -0.708602      0.259836      0.345150
Ti       1.76156      5.62865      2.21440         2.617748      0.562075     -0.525628
Ti       1.82698      5.62457     14.96016         0.377388      1.431395     -0.511758
Ti      13.12761      5.65443      2.21761         0.566821      0.205411      0.478335
Ti      13.23033      5.73927     14.85854         0.669501      0.024691      1.323969
Ti       1.81431      5.69179      6.36845         0.636471     -0.814679      1.146138
Ti      13.17100      5.66049      6.39057         0.230301      0.173182      0.024554
Ti       1.82306      5.69970     10.70129         0.365421     -0.112960      0.938529
Ti      13.29999      5.77214     10.64927         0.151170     -0.380892      2.234735
Ti       1.88037      9.49606      2.25268        -0.267150      0.017794     -0.943389
Ti       1.88793      9.43535     14.95408        -0.871606      0.341556      0.202239
Ti      13.23808      9.51457      2.37378         1.013326     -0.220184     -1.624836
Ti      13.27827      9.45863     15.08329         0.364963      0.006637      0.026260
Ti       1.83514      9.41281      6.44298         0.410269      0.256825      0.607453
Ti      13.21226      9.50768      6.32337         2.144871     -0.230726     -0.091071
Ti       1.95948      9.48429     10.80762        -0.284059     -0.494760     -1.076653
Ti      13.35374      9.50487     10.82606        -1.360077     -0.696132     -1.329016
Ti       5.60915      1.94678      2.16662         0.609927     -0.195201      0.406697
Ti       5.69528      1.84471     15.04349        -0.846531      1.323811     -1.382156
Ti       5.76671     13.29119      2.14228         0.270713      0.951606      0.171405
Ti       5.74108     13.29096     14.94677        -1.065943     -0.222152     -0.374289
Ti       5.58056      1.93633      6.35624         0.785876      0.803198      0.498338
Ti       5.76005     13.33036      6.45859        -0.371850     -0.458369      0.493240
Ti       5.56281      1.94093     10.64448        -0.223721     -0.998179      0.071341
Ti       5.81357     13.31338     10.64242        -0.448298     -0.096388      0.635520
Ti       5.63384      5.71395      2.18484         0.753327     -0.246407      1.950030
Ti       5.67009      5.64451     14.87431        -0.166496      1.083994     -0.247681
Ti       5.62350      5.70569      6.51274        -0.548914      0.107597      0.041361
Ti       5.65713      5.70547     10.80199        -0.299018      1.071697      0.063625
Ti       5.65976      9.51599      2.18598        -0.013944     -1.008580     -0.216633
Ti       5.64364      9.50306     14.91346         0.819999     -0.492228      1.164746
Ti       5.60293      9.47005      6.38082         0.302037     -0.389900      2.037655
Ti       5.74237      9.55816     10.73596        -1.103223     -1.375847     -0.614762
Ti       9.46183      1.91978      2.16249        -0.445964     -0.691901      1.208884
Ti       9.48026      1.92794     14.96276        -0.701837     -0.724134     -0.492061
Ti       9.61391     13.29724      2.15237        -1.429773      1.077707     -0.002680
Ti       9.49678     13.33531     14.98775         0.273354     -0.960665      0.718518
Ti       9.37807      1.91183      6.56819        -0.257775     -0.012116     -1.135081
Ti       9.55614     13.32607      6.46736        -0.237549     -0.270579      0.324170
Ti       9.41550      1.83505     10.69067         0.418101      0.656444     -0.237965
Ti       9.55258     13.24585     10.63326        -0.504340     -0.987676      2.780657
Ti       9.42180      5.63500      2.26765        -0.603912      0.466293     -0.080364
Ti       9.49000      5.66651     14.96933        -0.288565      0.263479     -1.342363
Ti       9.36909      5.64659      6.37840         1.545572     -0.025989      1.164568
Ti       9.50960      5.60342     10.76960        -0.176133      0.792397     -0.642220
Ti       9.50692      9.39622      2.44237        -0.738486      0.019507     -1.233948
Ti       9.48420      9.53332     15.00923        -1.425102     -0.839015     -0.180200
Ti       9.47864      9.47593      6.37953        -0.773896      0.304260      1.069123
Ti       9.48612      9.41748     10.64543         0.398505      1.222354      1.883266
O       1.86292      2.00190      0.38550        -0.191299      0.094469      0.875583
O       1.77590      1.90942     13.21882         0.029998     -0.040241     -0.447622
O       1.91183     13.22380      0.31593         0.264204      0.151883      1.118666
O       1.82168     13.33599     13.09782        -0.003284      0.276779     -0.914946
O      13.29004      1.95499      0.48971        -0.067069      0.022953      0.170139
O      13.28215      2.00570     13.17360        -0.238535     -0.694724      0.974871
O      13.25442     13.15102      0.26720         0.300038      0.753563      1.037664
O      13.44112     13.26912     13.13661        -0.435254      0.094860      0.919433
O       1.89668      1.85923      4.47711        -0.471657      0.038323      0.000906
O       1.83371     13.32785      4.62754         0.401850      0.055915      0.655380
O      13.17700      1.89237      4.73511         0.196140     -0.108055      0.118357
O      13.45081     13.21161      4.62698        -0.436709      0.856163      1.346388
O       1.89451      1.91798      8.99171        -0.528918     -0.110084     -0.041071
O       1.94021     13.46805      8.82824        -0.214689     -0.591581      0.669365
O      13.46278      1.90614      8.89091        -0.719946     -0.001947     -0.720639
O      13.23499     13.29615      8.94400        -0.254503     -0.134740     -0.388548
O       2.03346      5.68193      0.35343        -1.041660     -0.151979      1.423720
O       1.75883      5.60821     13.14626         0.196400      0.250236      1.139547
O      13.06903      5.58252      0.41974         0.754952      0.396356      0.738840
O      13.24437      5.73124     13.10150         0.245039      0.168751      0.418773
O       1.92936      5.72679      4.60564        -0.256278     -0.197719     -0.196997
O      13.05905      5.67684      4.57808         0.430982     -0.250565      0.246849
O       1.81732      5.67126      8.90854         0.075447     -0.062954      0.078989
O      13.18883      5.81560      8.92948         0.160323     -0.214692     -1.452895
O       1.83089      9.47442      0.40848         0.179050     -0.197231      0.783882
O       1.85884      9.35919     13.13859        -0.184166      0.350754      0.310590
O      13.31792      9.56224      0.49629        -0.360751     -0.112237      0.727082
O      13.27919      9.39294     13.23486        -0.052330      0.416876      0.879067
O       1.66644      9.37677      4.71471         0.798102      0.342541     -0.591677
O      13.34655      9.55569      4.48628        -0.475862     -0.166828      2.088805
O       1.80786      9.43857      8.95887         0.281715      0.074790      0.639624
O      13.31593      9.30240      9.01081         0.016606      0.756678     -0.103864
O       5.62997      1.99254      0.35529         0.037338     -0.124561      0.065199
O       5.74631      1.88392     13.20933        -0.241477     -0.359838      0.619896
O       5.78714     13.28330      0.37647        -0.199675      0.135856      0.242963
O       5.61782     13.29916     13.15689         0.433798      0.321539      0.321098
O       5.72406      1.96619      4.56634        -0.136057     -0.499239      0.465673
O       5.66960     13.33411      4.64363         0.178283     -0.007699      0.570940
O       5.56568      1.95035      8.84630        -0.227474      0.191020      0.201276
O       5.82629     13.24488      8.90097        -0.386351     -0.014685     -0.714822
O       5.66321      5.75224      0.47661         0.303834     -0.251906     -2.003481
O       5.66520      5.83783     13.09753         0.220895     -0.742135     -0.188614
O       5.76276      5.82648      4.68387        -0.602913     -0.136112      0.924540
O       5.70092      5.62785      8.95038         0.078136      0.289649      0.632644
O       5.58373      9.44854      0.42617         0.275853      0.397980      0.411875
O       5.68979      9.59491     13.14743        -0.205821     -0.169035     -0.040652
O       5.49733      9.37458      4.64264         0.639291      0.317116     -0.786845
O       5.56832      9.48999      8.93302         0.786696      0.288612      0.286507
O       9.44449      1.78354      0.40953         0.156758      0.377886     -0.766254
O       9.38348      1.85986     13.14025         0.293319     -0.099600      0.354921
O       9.44510     13.34763      0.35047         0.408045      0.165423      1.051957
O       9.56545     13.19664     13.22806        -0.063071      0.218388     -0.271104
O       9.40706      2.04804      4.69003         0.094457     -0.698428      1.338320
O       9.57696     13.25791      4.67829         0.001647      0.403564      0.496044
O       9.47381      1.76496      8.89541         0.015666      0.020709      0.380958
O       9.65915     13.36151      8.91463         0.049887      0.083064     -1.338516
O       9.36345      5.78051      0.43444         0.385880     -0.557129     -0.006913
O       9.41999      5.66852     13.16672         0.266324     -0.313222      0.393123
O       9.55269      5.56282      4.60291        -0.249823      0.123661      0.666957
O       9.60285      5.58686      8.96084        -0.568094      0.717495      0.426033
O       9.52304      9.45301      0.62921        -0.401244     -0.095855      0.530073
O       9.40475      9.60342     13.21440         0.548013      0.161611      0.482894
O       9.68131      9.67735      4.64975        -0.546929     -0.394469     -0.231349
O       9.44338      9.43013      8.87913         0.215882     -0.154555     -0.625402
O       3.76210      1.98706      2.67385         0.352428     -0.068316     -0.787785
O       3.71076      2.05996     15.36833         0.736777     -0.259729     -0.300512
O       3.82399     13.35247      2.58036         0.604064     -0.464404     -0.157044
O       3.79700     13.14934     15.24809        -0.861223      0.740202     -0.133121
O       0.01780      1.99154      2.60265        -1.787519     -0.065396      0.173296
O      15.14126      2.02531     15.36335        -0.467356     -0.793733      0.155948
O       0.05762     13.30246      2.48378        -0.429591     -0.203781     -0.319314
O       0.03665     13.40200     15.43714        -0.456014     -0.197473     -0.750196
O       3.67450      1.95280      6.70170         0.553898     -0.308590     -0.216142
O       3.78782     13.33806      6.92411         0.709859      0.105551     -1.079142
O      15.09450      2.01820      6.73361         0.653591     -0.257056     -0.108205
O      15.17988     13.22198      6.80578         0.779232      0.293261      0.467127
O       3.65844      2.00770     11.17457         1.386242     -0.093792     -0.146700
O       3.88417     13.32549     11.10348        -0.850987     -0.421800     -0.484300
O      15.12625      1.84322     11.08830        -0.077019     -0.072953      0.229812
O      15.17439     13.36322     10.92168         0.766707      0.124805      0.313580
O       3.79033      5.78058      2.57617        -0.349115     -0.634343     -0.166912
O       3.82263      5.73655     15.19301        -0.939159     -0.606165      0.259789
O       0.00420      5.70939      2.63646        -1.683019     -0.652092     -0.666964
O      15.10513      5.93683     15.33618         0.151403     -0.674914     -0.096501
O       3.75157      5.60322      7.00306         0.251900      0.335973     -0.969042
O      15.12020      5.66309      6.64204         0.122327     -0.312327      0.055918
O       3.77954      5.57643     11.13246         0.092786     -0.360643     -0.307494
O      15.18431      6.08292     10.98649        -0.670510     -0.740609     -0.179381
O       3.74082      9.42384      2.67914         1.059085      0.509937     -0.294515
O       3.72872      9.59434     15.20583         0.688578     -0.227679     -0.030663
O       0.03648      9.64184      2.63739        -0.730576     -0.880608     -0.632341
O      15.15510      9.41482     15.41922        -0.600409     -0.393571     -0.383803
O       3.75407      9.44212      6.85898        -0.249225      0.271749     -0.378843
O      15.17837      9.46069      6.90418        -0.695980      0.186653     -0.335357
O       3.76785      9.68809     11.13615         0.341997     -0.390578     -0.083536
O       0.02368      9.46918     11.08623        -0.083154     -0.449235      0.368535
O       7.59580      1.81969      2.53041        -0.472318      0.164159     -0.051979
O       7.57725      1.77531     15.35186         0.110603     -0.041257      0.062511
O       7.67625     13.50600      2.63855        -0.629417     -0.903426     -0.402670
O       7.60590     13.44269     15.17561        -0.083669      0.000474      0.358803
O       7.47286      1.90027      6.98261         0.622005     -0.153057     -0.673259
O       7.61583     13.28258      6.96732        -0.249565      0.340913     -0.865390
O       7.51980      1.79105     11.00204         0.796772     -0.110118      0.021942
O       7.62926     13.39135     11.08189         0.550228      0.110433     -0.174215
O       7.62859      5.69991      2.67954        -1.511815      0.379563     -0.271521
O       7.58873      5.74033     15.30243        -0.069613     -0.186373      0.397247
O       7.56774      5.62347      6.91134        -0.235014      0.838831     -0.373883
O       7.61857      5.88691     11.14378        -0.446307     -0.458137     -0.561847
O       7.59633      9.52461      2.79133        -0.301618     -0.071610     -0.449687
O       7.55672      9.55450     15.37926         0.562319     -0.248906     -0.075800
O       7.61986      9.39574      6.74455        -0.387267      0.407174     -0.277596
O       7.51584      9.35447     11.19979         2.022091      0.154364     -0.770167
O      11.37114      1.89596      2.59033         0.588750      0.000773      0.101400
O      11.31868      1.96089     15.26360         0.833162     -0.145805      0.273369
O      11.49967     13.47153      2.58682        -0.435991     -0.706592     -0.313021
O      11.43586     13.23725     15.30311        -0.262524      0.402210     -0.259847
O      11.29812      1.95287      6.85125         0.411685     -0.469229      0.171607
O      11.47240     13.16027      6.83276        -1.018134      0.449917     -0.132205
O      11.39021      1.97678     11.02546        -0.157943     -0.088840     -0.141681
O      11.38473     13.16718     11.25856         0.260057      0.256074     -0.678188
O      11.29096      5.75276      2.44617         0.847761     -0.020260      0.431961
O      11.37241      5.62668     15.27145        -0.575261     -0.157776      0.268576
O      11.34754      5.75974      6.78870        -0.874895     -0.626363     -0.101628
O      11.37098      5.64237     11.19715         0.161097     -0.181390     -0.407596
O      11.39316      9.62970      2.64485        -0.157943     -0.584950     -0.036114
O      11.23402      9.56112     15.56814         1.988901     -0.061120     -0.722432
O      11.42285      9.55352      6.82266        -0.463136     -0.016412     -0.271683
O      11.38275      9.61393     11.18962        -0.499045      0.282249     -0.403013
O       1.91002      3.82984      2.69235        -0.173320      0.106251     -0.531169
O       1.76510      3.78748     15.33322         0.131486      0.997542      0.043737
O       1.91219      0.00835      2.25459        -0.149960      0.045759      0.787848
O       2.01629      0.02378     15.30550        -0.486885     -0.656027      0.014424
O      13.25479      3.81274      2.66025         0.132224     -0.175582     -0.185141
O      13.20482      3.83289     15.33900         0.528279      0.078912     -0.066683
O      13.42819     15.16701      2.46012        -0.102444      0.204619      0.116875
O      13.29701      0.00939     15.34746        -0.323715      0.236847     -0.107524
O       1.85982      3.74754      6.73053        -0.279772      0.502330     -0.093769
O       1.78538      0.02436      6.69514         0.027058      0.343064      0.160195
O      13.12329      3.80951      6.91233         0.485658     -0.174564     -0.394117
O      13.28551     15.18575      6.93118        -0.122008     -0.239797     -0.369390
O       1.76764      3.79434     11.10069        -0.474418      0.381303     -0.010834
O       1.92966      0.00618     10.94616        -0.223078     -0.529713      0.750335
O      13.34177      3.86365     11.10821         0.295321     -0.349616     -0.607252
O      13.22992      0.02469     11.04901        -0.336270     -0.304546      0.007630
O       1.83008      7.59011      2.56700        -0.100170     -0.576204     -0.215501
O       2.00257      7.56157     15.43112        -0.582867      0.417120     -0.384738
O      13.30166      7.59895      2.60736        -0.209773     -0.427224     -0.296765
O      13.02565      7.63786     15.55668         0.881257     -0.254912     -1.263396
O       1.90928      7.52100      6.72452        -0.169513      0.440786      0.474814
O      13.26442      7.53658      6.61698        -0.233844      1.818581      0.229220
O       2.06747      7.57942     11.05930         0.106314      0.806490      0.022365
O      13.04641      7.63892     11.05557         0.727374     -0.407892      0.184622
O       2.00781     11.35754      2.57851        -0.012239      0.847869      0.029180
O       1.77273     11.35618     15.32629        -0.134718      0.383444     -0.644490
O      13.34633     11.42809      2.62333        -0.396483      0.751251     -0.509307
O      13.22381     11.42835     15.34933         0.539686     -1.469942     -0.402796
O       1.99096     11.39520      6.83160        -0.760614     -0.438467     -0.271966
O      13.37181     11.38175      6.81788        -0.297004     -0.976597     -0.029633
O       1.86331     11.49336     11.07645        -0.076637     -0.469131     -0.392948
O      13.41106     11.37140     10.99643        -0.292963      0.718881      0.217236
O       5.80250      3.81686      2.59090        -0.570360      0.178857     -0.138311
O       5.78353      3.82274     15.16282         0.129834     -0.700839      0.520221
O       5.63711      0.05801      2.40224        -0.071361     -0.749125      0.486617
O       5.53703      0.01143     15.34426         0.060979     -0.513454      0.183023
O       5.71476      3.79904      6.66514        -0.217193      0.348712      0.224646
O       5.72202      0.06041      6.67830        -0.354307     -1.039860      0.214209
O       5.84332      3.72258     11.06073        -0.393138      1.539655      0.098803
O       5.62770      0.05435     10.82867        -0.167193     -0.750659      0.771390
O       5.64330      7.62386      2.46635         0.715293     -0.026486      0.669262
O       5.71349      7.64408     15.21218        -0.301654     -0.057266      0.335948
O       5.63804      7.65563      6.91772         0.362317     -1.445475     -0.292419
O       5.51930      7.66053     11.02431        -0.159019     -0.929858     -0.009845
O       5.81992     11.40107      2.57617        -0.659474      0.480910      0.049267
O       5.71899     11.42282     15.37839         0.390833     -0.077111     -0.250208
O       5.68523     11.36209      6.77511        -0.000681      0.443071     -0.320017
O       5.78064     11.37478     11.17234         0.014759      1.526187     -0.401290
O       9.40613      3.77891      2.58687         0.482724      0.064312     -0.459839
O       9.34394      3.72286     15.31992         0.288740      0.904906      0.204239
O       9.57782      0.05133      2.61304         0.054680     -0.659669      0.227122
O       9.67137     15.18701     15.37909        -0.830779      0.344075     -0.791609
O       9.37662      3.74922      6.97051         0.518609      1.126269     -0.470175
O       9.47353      0.01540      6.73522         0.185622     -0.794392      0.181837
O       9.37734      3.76794     10.99081        -0.009653     -0.810538      0.328121
O       9.58846     15.18911     11.12035         0.139895     -0.460265     -0.060888
O       9.37427      7.54219      2.82536         0.912984      0.969446     -0.336469
O       9.53946      7.53769     15.16649        -0.298146      1.030201      0.771576
O       9.50416      7.55583      6.66874        -0.033189      0.421045     -0.158362
O       9.60369      7.60059     11.09040        -0.329409      0.019334     -0.230396
O       9.53807     11.50153      2.66859        -0.087108     -0.436668     -0.499111
O       9.43597     11.41354     15.53697         0.079378      0.253383     -0.792571
O       9.37748     11.43560      6.88806         0.963274     -0.966844     -0.295543
O       9.34329     11.35160     10.94541        -0.028669      0.405582     -0.199924
