  # total energy = -7873.01899402 
CRSYTAL
PRIMVEC
    15.2000000000000000    0.0000000000000000    0.0000000000000000
     0.0000000000000000   15.2000000000000000    0.0000000000000000
     0.0000000000000000    0.0000000000000000    17.000000000000000
PRESSURE
7.1647 7.83165 3.16272 0.055201 -0.114206 -0.082457
PRIMCOORD
320 1
Pb       3.60943      3.87155      4.34715        -0.008863     -0.535299     -0.454644
Pb       4.04639      3.94044     16.99514        -0.915034     -0.673185      0.217899
Pb       3.60125      0.26285      4.38492         0.426924     -0.636310     -0.872461
Pb       3.90165     15.14172     16.93926        -0.139519      0.653683     -0.102072
Pb       0.08760      3.91622      4.20994        -0.781003     -0.731000     -0.438932
Pb       0.24095      3.92647     16.92243        -0.738251     -0.603445      0.212987
Pb      15.13712      0.30723      4.58250        -0.357563     -0.359752     -1.038397
Pb       0.08478     15.03967     16.95253        -0.282987      0.592685     -0.127792
Pb       3.99958      3.89857      8.36429        -0.894371     -0.582748      0.123513
Pb       3.87073     14.94860      8.78325        -0.679754      1.021838     -0.408028
Pb       0.19093      3.60107      8.73394        -0.628455      0.371684     -1.237940
Pb      14.82477     15.11793      8.50626         1.425474      0.073303     -0.170950
Pb       3.84936      3.63104     12.52911         0.218487      0.318896      0.328578
Pb       3.81849      0.04660     12.88917         0.271103     -0.041259     -1.369129
Pb      15.13292      3.90377     12.69274         0.130986     -1.204210     -0.157783
Pb       0.09675     15.19013     12.93828        -0.143011      0.073961     -1.259977
Pb       3.68658      7.67106      4.37726        -0.046751      0.415308     -0.411010
Pb       3.74647      7.64488     16.96636         0.344795      0.161579     -0.007927
Pb      15.03324      7.87007      4.39443         0.155381     -0.278254     -0.851849
Pb      15.08840      7.44721     16.82776         0.487102      1.172394      0.685999
Pb       3.87566      7.58292      8.29943        -1.136723      0.020905      0.900751
Pb      15.01722      7.49340      8.50483         0.560202      0.170427      0.043540
Pb       3.66069      7.41115     12.63722         0.335076      0.593801     -0.388042
Pb       0.00681      7.37734     12.79717         0.252099      0.539602     -0.427109
Pb       3.46831     11.49995      4.40540         0.740904     -0.397504     -0.925809
Pb       4.11116     11.46307      0.32158        -0.661485     -0.689394     -0.565243
Pb      15.10493     11.51471      4.22855         0.296287      0.000039     -0.313745
Pb       0.15742     11.35960     16.86058        -0.422076     -0.061748      0.312231
Pb       3.63446     11.39900      8.57327         0.407760     -0.207343      0.040873
Pb      15.07653     11.38235      8.63286         0.214585     -0.301016     -0.439388
Pb       3.68806     11.27038     12.69860         0.414631     -0.099017     -0.770439
Pb      15.12200     10.96095     13.04524         0.287741      0.891231     -1.019369
Pb       7.55187      3.83837      4.29446         0.034685     -0.825561     -0.932375
Pb       7.59062      3.79653      0.15566         0.067501     -0.149878     -1.048660
Pb       7.55409     15.08378      4.24719         0.406083      0.442330      0.109648
Pb       7.69282     15.06338     16.96917        -0.376304      0.585653     -0.162359
Pb       7.71919      3.58874      8.38802        -0.295909      0.849506      0.167650
Pb       7.66654      0.00981      8.53504        -0.660364     -0.247025     -1.018484
Pb       7.71277      3.78323     12.80108        -0.712238     -0.033651     -0.355900
Pb       7.58143     15.07110     12.89301        -0.458581      0.764894     -0.805714
Pb       7.77912      7.48411      4.03722        -0.568151      1.031869      0.958339
Pb       7.67730      7.73286      0.18009        -0.784418     -0.267918     -0.798479
Pb       7.51513      7.64855      8.23639         0.455288     -0.297087      1.208293
Pb       7.41143      7.60962     12.63575         0.663565     -0.313073     -0.277943
Pb       7.44907     11.36472      4.31130         0.163909      0.031549     -0.721021
Pb       7.51997     11.50269      0.02356         0.788699     -0.440853     -0.170255
Pb       7.59341     11.55523      8.66097        -0.237269     -0.251857     -0.550424
Pb       7.58565     11.33065     12.74018        -0.367765      0.159405     -0.939480
Pb      11.38388      4.02522      4.05855        -0.076068     -1.570371      0.074324
Pb      11.31122      3.58813     16.96973        -0.030684      0.510793     -0.193762
Pb      11.52581     15.13536      4.09222         0.024856      0.856376      0.920287
Pb      11.45581     15.17592     16.97323         0.030530     -0.213797     -0.428148
Pb      11.48359      3.80076      8.46651        -0.657526      0.194356     -0.307419
Pb      11.31719      0.04489      8.44544        -0.211587     -0.159954     -0.658255
Pb      11.27166      3.61772     12.81921         0.284472      0.583532     -0.734953
Pb      11.39627     15.18920     12.65375         0.389564     -0.189214     -0.039654
Pb      11.52632      7.54248      4.06121        -0.779383      0.971913      0.411052
Pb      11.42510      7.56382     16.91676        -0.377283      0.015019      0.028944
Pb      11.26961      7.49523      8.73803         0.031349      0.292697     -1.175040
Pb      11.36817      7.60763     12.99104        -0.208663     -0.615937     -1.095537
Pb      11.37114     11.27569      4.15462         0.340608      0.144556      0.065442
Pb      11.50567     11.46827     16.67360        -0.586652     -0.062524      1.286211
Pb      11.28486     11.44039      8.53471         0.415412     -0.821136      0.096240
Pb      11.23141     11.17575     12.45604         0.904807      0.528873      0.980983
Ti       1.82268      1.85732      2.02084        -0.097687      1.142332      1.387108
Ti       1.84711      1.91265     14.84582         1.027377      0.475368      0.916163
Ti       1.92272     13.29657      2.05406        -0.039867      0.540906      1.283504
Ti       1.97510     13.24394     14.84791        -0.854367     -0.076790      0.907470
Ti      13.28941      1.97443      2.02267         0.542813     -0.851494      2.203879
Ti      13.31951      1.84518     14.85871         0.225604      0.792268      0.358690
Ti      13.43669     13.37122      2.20548         0.230250     -0.105755     -0.770842
Ti      13.43518     13.33176     14.86280        -0.514983     -0.900927      0.394127
Ti       1.89533      1.90490      6.59124        -0.710245      0.139224      2.103651
Ti       1.91639     13.34148      6.64533        -1.592414      0.275891     -0.425643
Ti      13.13996      1.96460      6.45460         1.375792     -0.331668     -0.850440
Ti      13.18167     13.18589      6.52396         1.463145      0.817332     -0.687772
Ti       1.89722      1.81849     10.59686         0.078626     -1.266771      0.150895
Ti       1.77549     13.17437     10.87395         1.286443      1.150846      0.441239
Ti      13.26847      1.78376     10.60214         0.467436      0.365817      2.424013
Ti      13.34605     13.13406     10.83661        -0.227924      0.186852      1.381563
Ti       1.83059      5.80684      2.29513        -0.473360     -1.020805      0.517398
Ti       1.98183      5.68975     14.96611        -0.047544      0.466309     -0.642241
Ti      13.28423      5.74928      2.07549         0.948363     -0.328740     -0.138513
Ti      13.17805      5.60403     14.90646         0.248584     -0.207591      0.219432
Ti       1.70891      5.70565      6.55409        -0.016810     -0.362941      0.101301
Ti      13.21398      5.69342      6.40415         0.218058      0.367073      0.160537
Ti       1.89219      5.58521     10.60067         0.034211      1.070136      0.079890
Ti      13.17243      5.57974     10.80945        -0.331980      0.294705      1.428590
Ti       1.74583      9.45746      2.04889         0.494693      1.195927     -0.763318
Ti       1.96410      9.43129     14.93428         0.184794     -1.018713      0.998750
Ti      13.18626      9.56269      1.97571         0.592888     -0.140535      0.932439
Ti      13.26853      9.45635     14.95473         0.226635      0.741852      2.222478
Ti       1.77681      9.57737      6.55811         0.128070     -0.649004      1.133537
Ti      13.23759      9.47074      6.49582        -0.522912      0.005756     -0.739388
Ti       1.82053      9.34781     10.63001         0.862672     -0.117069      0.145961
Ti      13.29179      9.28915     10.69624        -0.315905      1.265834     -0.479421
Ti       5.60315      1.87097      2.18255         0.420515      0.048976      0.886674
Ti       5.67899      1.89060     15.09691         0.551807     -0.112872      0.047507
Ti       5.71056     13.35297      2.29143        -0.100806     -0.556840      1.291809
Ti       5.71417     13.21755     14.87818         0.039235      1.343226      0.137348
Ti       5.60854      1.90656      6.35412         0.921848     -0.920788      0.784142
Ti       5.62546     13.34296      6.45429         0.557029      0.587715      1.506591
Ti       5.74544      1.88992     10.52600        -0.678908     -0.622799      1.308755
Ti       5.64436     13.26986     10.75382        -0.453001      0.015352      1.147320
Ti       5.56791      5.66978      2.34084         0.594134      0.116002     -1.050782
Ti       5.73908      5.78571     14.90260         0.041386     -0.864985     -0.280778
Ti       5.72148      5.73324      6.36622        -0.091528     -1.110141      0.185775
Ti       5.78871      5.68021     10.56323        -0.393655     -0.348459      0.021288
Ti       5.50063      9.47204      2.37772         0.937792      0.668785      0.435291
Ti       5.70903      9.47453     14.76476        -1.366818     -0.266938      0.878040
Ti       5.74565      9.63756      6.47655        -1.227869     -0.250825     -0.782836
Ti       5.67651      9.44845     10.52872        -0.943101      0.871604      1.268887
Ti       9.46172      1.83022      2.23855         0.189938      0.725910      1.261159
Ti       9.45268      1.81951     14.95384        -0.298632      1.264412      1.116455
Ti       9.66329     13.30143      2.20707        -1.204437     -0.404474     -0.278408
Ti       9.54842     13.25584     14.82712        -0.410819      0.408531      1.375370
Ti       9.44568      1.82963      6.30175         0.095510     -0.433325     -0.062518
Ti       9.46258     13.16932      6.47329        -0.378158      1.567546     -0.512992
Ti       9.43092      1.84768     10.69636        -0.052119      0.587396      0.531339
Ti       9.50436     13.35572     10.68937        -0.445044     -0.702853      0.724564
Ti       9.45568      5.71017      2.02722         0.862100     -0.186999     -0.751144
Ti       9.43588      5.68223     14.95836        -0.224630     -1.378033      0.315661
Ti       9.44571      5.59740      6.43543         1.161160      0.478874      2.006507
Ti       9.46082      5.72573     10.64376         0.503481     -0.795835     -0.132383
Ti       9.40322      9.61870      2.13394         0.143758     -0.426430      0.637651
Ti       9.37448      9.50037     14.88733         0.647660      0.259014      0.547301
Ti       9.51655      9.39614      6.38191         1.015824     -0.009687      1.131544
Ti       9.38349      9.47120     10.55362         0.452098     -0.333025      0.094976
O       1.80930      2.10001      0.29634        -0.009428     -0.720641     -0.833547
O       1.87845      1.96939     13.04051         0.036163     -0.025996      0.729101
O       1.77495     13.18948      0.27628         0.697726      0.266685     -0.057684
O       1.84945     13.43639     13.09903         0.493837     -0.972901      0.121927
O      13.28622      1.74337      0.29140        -0.100011      0.243427     -0.635561
O      13.34553      1.71664     13.06922        -0.236389      0.628537      0.580583
O      13.43188     13.38951      0.35036        -0.165473      0.127978      1.274948
O      13.46363     13.24050     13.11601        -0.528000      0.051269      0.128887
O       1.92036      1.90742      4.81389        -0.124725      0.009460     -1.548320
O       1.88942     13.11651      4.85175        -0.104947      0.962990      0.392974
O      13.30313      1.81327      4.66607        -0.358666      0.248625      0.418509
O      13.28275     13.42124      4.74601         0.082204     -0.880715      0.380858
O       1.84243      1.85602      8.77179         0.303848      0.039244      1.049155
O       1.91877     13.24781      9.10703        -0.160912      0.054909     -1.055473
O      13.21699      1.97983      8.84941        -0.092897     -0.329653     -0.451405
O      13.38285     13.17639      9.07417        -0.491722      0.157101     -0.954819
O       1.90166      5.77930      0.55342         0.033318     -0.271807     -1.314403
O       1.88024      5.75466     13.16752         0.076422     -0.554888      0.058589
O      13.27721      5.83838      0.27910        -0.430936     -0.240140      0.491619
O      13.12183      5.68222     13.06657         0.586883     -0.049141      1.237791
O       1.68665      5.54003      4.70184         0.453415      0.776069      0.584560
O      13.26442      5.83466      4.61144         0.100470     -0.236028     -0.167267
O       1.75106      5.75496      8.84549         0.447031     -0.511392      0.357470
O      13.11459      5.67659      9.08626        -0.334271     -0.055825     -1.756311
O       1.89670      9.52497      0.19251        -0.030429     -0.124368      1.777286
O       1.93957      9.35252     13.14600         0.056243      0.059862     -0.317896
O      13.26916      9.41164      0.19499        -0.265131      0.384551      0.494771
O      13.12863      9.38283     13.24568         0.415404      0.261485     -2.599743
O       1.75833      9.67581      4.78160         0.152301     -0.476003     -0.537221
O      13.21877      9.59958      4.58507         0.252964     -0.753845      1.348285
O       1.72817      9.28444      8.85322         0.271637      0.576403      0.680917
O      13.34644      9.44736      8.90561        -0.270008     -0.504631      0.766501
O       5.60962      1.78958      0.37807         0.098743      0.286126      0.586912
O       5.63976      1.74099     13.33188         0.174987      0.330904     -0.578291
O       5.79208     13.28525      0.49831        -0.588347     -0.186449     -0.666773
O       5.70286     13.43880     13.10451         0.101755     -0.542993      0.432187
O       5.63533      1.86122      4.56995        -0.022577      0.199149     -0.044807
O       5.66704     13.26963      4.72845         0.027479      0.166324     -1.359533
O       5.69564      1.88266      8.76650         0.171514      0.192910      0.295593
O       5.53167     13.25309      8.98197         0.595717     -0.320554     -0.864562
O       5.63213      5.72748      0.45981         0.164022      0.161414      1.700411
O       5.63544      5.75689     13.06772         0.328216     -0.028192      1.150771
O       5.82817      5.61478      4.53582        -0.415216      0.459641      1.574200
O       5.84959      5.61985      8.74404        -0.655284      0.200365      1.398315
O       5.62576      9.58039      0.56048        -0.019327     -0.357193      0.189855
O       5.60852      9.45726     12.97534         0.425299     -0.151346      0.959842
O       5.58577      9.57418      4.62515         0.024452     -0.334433      1.257498
O       5.81881      9.56811      8.76210        -0.417820     -0.065627     -0.393755
O       9.54115      1.80874      0.47381         0.272128     -0.195357     -0.747396
O       9.45869      1.90488     13.18556        -0.023132      0.105164     -0.571109
O       9.58468     13.23895      0.40127        -0.149462      0.769461      0.930845
O       9.38058     13.27880     13.06750         0.137453     -0.469501     -0.008288
O       9.44135      1.98312      4.53744        -0.005290     -0.079097     -0.144356
O       9.37343     13.34316      4.70608         0.454389     -0.749867      0.192301
O       9.33224      1.65018      8.91051         0.693739      0.557635      0.416271
O       9.44954     13.36957      8.86939         0.205742     -0.088147      0.660852
O       9.45572      5.72956      0.19130        -0.172963      0.539510      1.519680
O       9.49919      5.42212     13.15962        -0.136645      0.411071      0.755887
O       9.43120      5.65026      4.70322         0.157648     -0.135439     -1.417431
O       9.63695      5.58480      8.81332        -0.454646      0.353458      1.208652
O       9.36880      9.53173      0.36175        -0.218375     -0.191455     -0.637614
O       9.35287      9.66724     13.09543        -0.052342     -0.514468      0.399342
O       9.55183      9.47025      4.62616         0.089822      0.227530     -0.221507
O       9.46348      9.53585      8.78454        -0.243945     -0.279504      0.226430
O       3.77625      1.94478      2.52177        -0.317345      0.024906      0.203662
O       3.81625      1.90519     15.33192        -1.651679     -0.315152     -0.079058
O       3.79715     13.22277      2.49603        -0.252437      0.191896     -0.219280
O       3.77507     13.37165     15.21403         0.557208     -0.366943      0.216057
O      15.15165      1.78696      2.61061         0.420829      0.439510     -0.495995
O       0.00851      2.07108     15.16678        -0.257126     -0.005925      0.000668
O       0.09354     13.37068      2.69499        -0.761891      0.091409     -0.594972
O       0.09514     13.24067     15.33650        -0.316852      0.319383     -0.523787
O       3.82572      1.96309      6.75076        -0.811572     -0.170462     -0.054472
O       3.75155     13.36936      7.01342         0.411779     -0.738122     -0.366038
O      15.12361      1.94216      6.73715         0.148007     -0.146275      0.296307
O      15.07596     13.19717      7.01717         0.209555      0.330112     -0.355646
O       3.79930      1.84684     11.01003         0.615891      0.005336     -0.045635
O       3.83180     13.29439     11.13805        -1.276273      0.108664      0.369726
O      15.19848      1.98227     10.80681        -0.683607      0.285369      0.440155
O      15.18746     13.17158     11.27355        -0.484945     -0.402003     -0.723769
O       3.69043      5.67163      2.82522         1.012249      0.632823     -0.507557
O       3.86182      5.75776     15.46779        -0.373238      0.096526     -0.914306
O      15.16519      5.75229      2.54879        -0.787353      0.016676     -0.053039
O      15.09881      5.78939     15.29575         0.304990     -0.784671     -0.871803
O       3.68123      5.68377      6.73626         1.511642      0.424466     -0.364029
O      15.05219      5.55643      6.98119         0.123229     -0.089098     -0.545357
O       3.79771      5.80481     10.88595         0.707715     -0.401135     -0.102287
O      15.14080      5.50724     11.02368         0.401479      0.137856      0.175044
O       3.59072      9.50202      2.59767         1.245254     -0.274803      0.025158
O       3.83622      9.44639     15.31625         0.459654     -0.226584     -0.398520
O      15.16828      9.52332      2.45868        -0.895719     -0.082924      0.052858
O       0.00935      9.28770     15.11308        -0.696428      0.617614     -0.139257
O       3.69317      9.42590      6.95575         0.539540      0.400315     -0.828887
O      15.13965      9.52159      6.90503        -0.337869      0.650686     -0.429905
O       3.75167      9.18692     10.91016         0.384236      0.629789     -0.208496
O       0.01462      9.53029     11.13008        -1.175275     -0.407124      0.173827
O       7.58198      1.97306      2.48260         0.329219     -0.237075      0.023467
O       7.60263      1.90196     15.41857         0.204196     -0.278518     -0.021654
O       7.58625     13.35670      2.65042         0.597806     -0.658615     -0.356852
O       7.57782     13.36106     15.29820        -0.036415     -0.241643     -0.308094
O       7.55599      1.93097      6.82221         0.351235     -0.155627     -0.667204
O       7.55941     13.26248      6.96721        -0.294326     -0.554943     -0.560801
O       7.55676      1.87130     11.11177         0.280241      0.137637     -0.293118
O       7.53370     13.21082     11.02553         1.025110     -0.255622     -0.094371
O       7.68952      5.69898      2.51997        -1.430864     -0.170710     -0.192152
O       7.56204      5.58552     15.29012        -0.021816      0.394201     -0.198897
O       7.58026      5.61533      6.92445        -0.541237     -0.326440     -1.343427
O       7.67571      5.57980     11.23064        -1.457725      0.073350     -0.750439
O       7.57084      9.63804      2.63810        -0.133876     -0.573975     -0.317649
O       7.52680      9.53822     15.27855         0.529250      0.120741      0.026106
O       7.62543      9.58575      6.74745        -0.843224      0.198977     -0.397366
O       7.54562      9.63841     11.01426         0.119892      0.040107     -0.034006
O      11.41232      2.03476      2.58957         0.406500     -0.719309     -0.579936
O      11.38673      1.81452     15.29362         0.346307     -0.098338     -0.093123
O      11.50087     13.29230      2.61374         0.009336     -0.073265     -0.415657
O      11.42531     13.25849     15.21225         0.583548      0.604233     -0.413389
O      11.29927      1.80124      6.83166         0.018283     -0.190948      0.184755
O      11.38603     13.29079      6.94095        -0.775305      0.567480      0.053516
O      11.34829      1.78492     11.09446         0.297409     -0.418141     -0.397246
O      11.35889     13.28444     11.15486         0.296885      0.296030     -0.420440
O      11.38018      5.78262      2.44337         0.231195      0.078775      0.026210
O      11.33649      5.73682     15.28176         0.515508     -0.143418     -0.040590
O      11.37022      5.78252      6.79238         0.009704      0.190307     -0.002656
O      11.23581      5.87049     11.23708         0.824482     -0.319290     -0.718838
O      11.32566      9.54060      2.42865         0.803777     -0.032624     -0.028879
O      11.25562      9.71664     15.14931         0.525543     -0.645312      0.134365
O      11.41874      9.29591      6.90056        -1.192089     -0.242265     -0.340963
O      11.31409      9.25816     10.97536         0.148456      0.132573      0.283124
O       1.80242      3.73894      2.54301         0.065457      0.819785      0.442095
O       1.91110      3.90236     15.27573         0.014098     -1.113709      0.090383
O       2.04976      0.05729      2.38386        -0.280283     -1.258109      0.109198
O       1.70699      0.04080     15.12564         0.735321     -0.274357      0.133296
O      13.34043      3.83514      2.31802        -0.186080      0.637605      0.193321
O      13.20553      3.77169     15.24133        -0.057780      0.319738     -0.297446
O      13.36212      0.01995      2.56525        -0.863607     -0.201266     -0.423861
O      13.48600      0.00970     15.21094        -0.312654     -0.676342      0.124654
O       1.92222      3.78655      6.93288        -0.289869      0.387239     -0.055406
O       1.94621      0.00346      6.86696        -0.608554     -0.268591     -0.255171
O      13.08823      3.81282      6.64787        -0.119732      0.533322      0.344637
O      13.24719      0.05713      6.83179        -0.110785     -1.466034      0.444958
O       2.03453      3.71748     10.96694        -0.561926      1.075590     -0.096918
O       1.86146     15.18962     11.10237        -0.122324      0.022519     -0.152584
O      13.14416      3.71361     11.13285        -0.098452     -0.239815     -0.144520
O      13.38846     15.10620     11.03452        -0.464473      0.594532     -0.447594
O       1.81831      7.65946      2.58352         0.349704      0.046225      0.402118
O       1.81961      7.48195     15.41371         0.930553      1.114044     -0.195886
O      13.21385      7.66784      2.48387         0.450203      0.029820     -0.208435
O      13.13002      7.65413     15.27294        -0.275198     -1.450145     -0.296417
O       1.67972      7.56458      6.83429         0.397358      0.133911     -0.770523
O      13.46773      7.64000      6.75337        -0.459554     -1.608492     -0.276203
O       1.80033      7.47797     11.16048        -0.692246     -0.147795     -0.413573
O      13.39345      7.49592     11.11550        -0.091360      0.056657      0.075579
O       1.82254     11.48699      2.53882         0.142969     -1.286356     -0.158778
O       1.80729     11.26223     15.08318         0.149993      1.748836     -0.188952
O      13.33040     11.38520      2.50436        -0.067967      0.561872     -0.282983
O      13.50077     11.43775     15.36354        -0.678575     -0.665125     -0.905762
O       1.82572     11.45142      6.96463         0.492413     -0.871172      0.303642
O      13.04388     11.27522      6.90375         0.778440      1.908048     -0.144250
O       1.96417     11.29879     11.05770         0.295216     -0.589429      0.140003
O      13.11871     11.20139     11.02104         0.504739      0.897281      0.284788
O       5.70598      3.81234      2.58652        -0.084847      0.050836     -0.353323
O       5.73358      3.79567     15.45508        -0.153010      0.491187     -0.521321
O       5.72794     15.19700      2.62359        -0.463474      0.234453     -0.319129
O       5.68547     15.13286     15.47987         0.141656     -0.290835     -0.454741
O       5.64554      3.77689      6.74279         0.428422      1.443920     -0.429707
O       5.63292      0.02751      6.76800         0.240679     -0.744105     -0.040139
O       5.66262      3.78791     10.96841         0.039113      0.237410     -0.159479
O       5.66840      0.02646     10.98579         0.203700     -0.329206     -0.126529
O       5.77691      7.55988      2.69078        -0.766646      0.442887     -0.340118
O       5.81783      7.63464     15.26397        -0.260132     -0.087672     -0.068958
O       5.60657      7.60870      6.76269         0.781564     -0.230963     -0.763228
O       5.91019      7.59302     10.85365        -0.049332     -0.922228     -0.003343
O       5.61750     11.35179      2.60527         0.085232      0.836990     -0.192122
O       5.70941     11.37936     15.22940        -0.254565      0.130979      0.121770
O       5.51850     11.43903      6.74218         0.276267     -0.375776      0.292069
O       5.51798     11.29100     11.05624         0.186693      0.528621     -0.128311
O       9.60553      3.89142      2.40512        -0.386318     -0.536232     -0.002859
O       9.46776      3.75207     15.50851         0.345930     -0.355170     -0.697629
O       9.62570     15.15166      2.64508        -0.589096      0.667664     -0.646815
O       9.42268     15.19746     15.23811         0.409571     -1.337161      0.162824
O       9.62361      3.66948      6.77370        -0.727829      1.329043      0.188353
O       9.38980     15.17122      6.70545         0.242741     -0.367703      0.522040
O       9.54228      3.70837     10.97953         0.018117      0.305468      0.063933
O       9.41959     15.16233     11.19316         0.025766     -0.091513     -0.390945
O       9.44338      7.67100      2.46523         0.172636     -0.608961     -0.448978
O       9.47220      7.55071     15.08905        -0.193952      1.874411      0.212316
O       9.30588      7.50432      6.79134         0.612683      0.802493     -0.429398
O       9.28701      7.61578     10.86457        -0.249083     -0.489870      0.069195
O       9.58342     11.44878      2.55732        -0.496633      0.091758      0.162986
O       9.37313     11.52566     15.47186        -0.006232     -1.354953     -1.186370
O       9.68395     11.34719      6.82171        -0.706544     -0.338985     -0.392289
O       9.55982     11.38036     10.90832        -0.507422      0.353492     -0.161279
