  # total energy = -7879.26531417 
CRSYTAL
PRIMVEC
    15.3600000000000000    0.0000000000000000    0.0000000000000000
     0.0000000000000000   15.3600000000000000    0.0000000000000000
     0.0000000000000000    0.0000000000000000    17.440000000000000
PRESSURE
0.995868 1.42766 1.7185 -0.222844 -0.258185 -0.038664
PRIMCOORD
320 1
Pb       3.86535      3.81492      4.29249        -0.162447      0.072495     -0.706821
Pb       3.76244      3.88072     17.41325        -0.101457     -0.518353     -0.451991
Pb       3.86291     15.34170      4.28917         0.221355     -0.292337     -0.363892
Pb       3.91229     15.29845      0.02408        -0.224287      0.566409     -0.827628
Pb      15.33666      3.88440      4.31707        -0.227791      0.005229     -0.550905
Pb      15.23421      3.73679     17.35019        -0.015165     -0.176048      0.088290
Pb      15.32464      0.01494      4.40394        -0.583466     -0.568557     -0.819816
Pb       0.16443      0.04841     17.37359        -0.462007     -0.242322      0.059571
Pb       3.95703      3.85434      8.64115        -0.594452     -0.234964     -0.228546
Pb       3.81444     15.30903      8.63515        -0.239184      0.161294     -0.403470
Pb       0.15280      3.76367      8.72416         0.016351      0.433111     -0.314874
Pb       0.08625     15.28889      8.65698         0.122997     -0.149798     -0.492505
Pb       3.90764      3.92268     13.11257        -0.594297     -0.571133     -0.301890
Pb       3.99552      0.07340     13.17301        -0.420295      0.110501     -0.021853
Pb      15.31518      3.87890     12.96585         0.478360      0.006066     -0.385508
Pb      15.32791     15.34051     13.07216        -0.204022     -0.206905     -0.317942
Pb       3.78085      7.64426      4.36340        -0.357848      0.369104     -0.498889
Pb       3.89511      7.74368     17.42043        -0.306929     -0.285845     -0.661298
Pb      15.19516      7.57098      4.32689         0.651628     -0.108246     -0.347840
Pb       0.16253      7.58529      0.01408        -0.637483      0.239428     -0.311491
Pb       3.74943      7.67773      8.62851        -0.328415     -0.052554     -0.569917
Pb      15.31280      7.73884      8.63917         0.209916     -0.645931     -0.244680
Pb       3.87782      7.75791     13.07688         0.120914     -0.229978     -0.617222
Pb      15.26104      7.71921     12.96212         0.340156     -0.450004      0.007144
Pb       3.92311     11.43417      4.41416        -0.714417     -0.103416     -0.657959
Pb       3.67720     11.53157      0.02447         0.382211      0.099612     -0.424200
Pb      15.28428     11.36447      4.39286         0.555030      0.555992     -0.515988
Pb       0.06841     11.42262      0.07172        -0.448556      0.255916     -0.508605
Pb       3.83016     11.45349      8.65140        -0.010128      0.178311     -0.462153
Pb       0.06074     11.63823      8.65237        -0.244991      0.166088     -0.346637
Pb       3.75266     11.56417     13.05738         0.034307     -0.143977     -0.416326
Pb      15.19864     11.47033     12.95254         0.036030      0.166559      0.265789
Pb       7.57771      3.93784      4.23604         0.151326     -0.539104      0.167845
Pb       7.64852      3.79965      0.02934        -0.418083     -0.502603     -0.721107
Pb       7.56144     15.27920      4.34233         0.056516      0.156495     -0.665108
Pb       7.82794     15.26522      0.02270        -0.469576      0.648114     -0.596788
Pb       7.68082      3.85617      8.63901         0.000186     -0.689257     -0.266574
Pb       7.69552      0.11025      8.72081        -0.528548     -0.081502     -0.521057
Pb       7.58222      3.70194     12.99689        -0.337446      0.163056     -0.011368
Pb       7.67225     15.17674     13.13158         0.152442      0.510377     -0.177759
Pb       7.66438      7.78126      4.39822         0.467865     -0.562428     -0.437317
Pb       7.67074      7.61252     17.38967         0.475667      0.193542     -0.839348
Pb       7.71565      7.54431      8.74770        -0.111008      0.280941     -0.218165
Pb       7.78971      7.67772     13.13512        -0.467821      0.176592     -0.744848
Pb       7.63767     11.47925      4.33286         0.387931      0.520757     -0.116920
Pb       7.67063     11.43368     17.34173         0.133055     -0.079946     -0.041411
Pb       7.71088     11.52694      8.78729        -0.095014     -0.086049     -1.040750
Pb       7.55082     11.49947     13.05231         0.832808     -0.518710     -0.639056
Pb      11.55845      3.92455      4.34662        -0.287503      0.176542     -0.473300
Pb      11.38558      3.79796     17.39217         0.348452      0.463715      0.333850
Pb      11.55743      0.08265      4.40214        -0.064432     -0.678986     -0.478527
Pb      11.61161      0.06208     17.41030        -0.008955     -0.653350      0.319876
Pb      11.64386      3.66601      8.68110        -0.538526      0.824636     -0.004017
Pb      11.52231      0.07463      8.70535         0.079819     -0.628285     -0.050089
Pb      11.44615      3.86353     12.90752         0.346619     -0.013587     -0.137939
Pb      11.46576     15.33752     13.13453         0.218868     -0.158377     -0.519077
Pb      11.53491      7.64860      4.43935        -0.643790     -0.549952     -0.904334
Pb      11.44883      7.72963     17.33550         0.168541     -0.452806      0.219906
Pb      11.51575      7.64473      8.68547         0.100309     -0.520804     -0.342179
Pb      11.59947      7.63741     13.11321        -0.464755      0.034741     -0.570738
Pb      11.42596     11.56057      4.33735         0.119339      0.355709     -0.521671
Pb      11.57070     11.53424     17.41493         0.090112      0.028043     -0.547302
Pb      11.43314     11.52707      8.70754         0.078479      0.019354     -0.301624
Pb      11.47528     11.58408     13.11034        -0.296547     -0.016033     -0.271555
Ti       1.78247      1.91032      2.39555         0.331779      0.157718     -1.425122
Ti       1.81364      1.92048     15.31779         1.011040     -0.218024      1.439212
Ti       1.87822     13.43810      2.41483        -0.254160     -1.114809      1.415182
Ti       1.84209     13.39881     15.28074         0.459928      0.811328      0.340982
Ti      13.32179      1.88468      2.32590         0.791052     -0.214896     -0.382641
Ti      13.20901      1.87951     15.40921         2.211887      0.011254     -0.882414
Ti      13.40062     13.36368      2.34974         0.293095      0.804495      0.396282
Ti      13.49748     13.41335     15.41523        -0.206728     -0.266455      1.698792
Ti       1.87107      1.82203      6.45956         0.252193      0.417556      1.653043
Ti       1.96258     13.36818      6.49230        -0.722550      0.571713      1.698552
Ti      13.41682      1.90312      6.62068         0.756741     -0.317768     -0.489989
Ti      13.28751     13.42165      6.66913         1.741724     -0.141290     -0.721370
Ti       1.81811      1.83388     11.09102         0.751119      1.213871      0.224327
Ti       1.90101     13.44721     11.15372        -0.672552     -0.116752     -1.210170
Ti      13.35198      1.89114     11.00340         0.691271     -0.836055      2.104248
Ti      13.37192     13.40329     10.99572         0.341614      0.423745      1.143434
Ti       1.87043      5.75006      2.33603         0.001531     -0.644117      0.990623
Ti       1.80369      5.72680     15.39808         0.388880     -0.319456     -0.632069
Ti      13.34331      5.67360      2.13473        -0.441250     -0.110469     -0.100928
Ti      13.35756      5.76667     15.35215         0.327325      0.055819      0.652441
Ti       1.93009      5.58727      6.50553        -1.092709      1.458275      1.641331
Ti      13.40101      5.72505      6.72354         0.677051      0.218112     -0.166430
Ti       1.92800      5.78253     11.01577        -0.110586     -1.403554      0.652265
Ti      13.39713      5.76531     10.96623        -0.014582     -0.572526     -1.018550
Ti       1.91919      9.57264      2.32930         0.557039     -0.168384      2.479791
Ti       1.90529      9.60229     15.37403        -0.164844     -0.173356      2.142120
Ti      13.41048      9.46681      2.39080         0.009387      0.782952     -0.522499
Ti      13.52182      9.56119     15.38630        -0.270363      0.642342      1.361211
Ti       1.82259      9.58658      6.69031         0.654537     -0.830880     -0.634385
Ti      13.35352      9.60590      6.63348         0.759358     -0.480502      0.786198
Ti       1.87390      9.63945     11.00684        -0.240845     -0.917786      0.437848
Ti      13.27472      9.54242     10.95762         1.301834      0.541808      0.531525
Ti       5.61716      1.89778      2.27625         1.357762     -0.247037     -0.429289
Ti       5.68716      1.92626     15.37958         0.180632      0.543160      0.073073
Ti       5.66687     13.36367      2.16125         0.436693      0.517019     -0.065952
Ti       5.70760     13.34339     15.45477        -0.523252      1.166982      1.612898
Ti       5.63505      1.87433      6.56765         0.757179      0.006229      1.134615
Ti       5.73610     13.43879      6.70942         0.648233     -0.155740      0.767571
Ti       5.64552      1.83001     11.00915         0.128297      0.110728      1.100235
Ti       5.73508     13.36077     10.97749        -0.697896      0.653162      0.926186
Ti       5.75166      5.83294      2.23071        -0.537042     -1.611276      2.031464
Ti       5.70163      5.72403     15.38431         0.822969     -0.097076      0.344053
Ti       5.72869      5.75671      6.57908        -0.419891     -0.822742      1.299459
Ti       5.72144      5.68500     10.97788         0.131179      0.604262      2.889059
Ti       5.80231      9.52186      2.30221        -1.065723      0.934500     -0.165043
Ti       5.75095      9.64769     15.33153         0.359484     -1.641790      0.502129
Ti       5.81080      9.58363      6.74483        -0.480402     -0.101490      1.299531
Ti       5.70839      9.55055     10.95537         1.153851     -0.092595      1.029055
Ti       9.50959      1.94271      2.44815        -0.344637      0.161842     -0.043981
Ti       9.61755      1.89999     15.26469        -2.693105     -1.072265      0.676551
Ti       9.55946     13.52064      2.25473         0.322537     -0.562499      0.680064
Ti       9.60129     13.37396     15.44466         0.147666      0.349242      0.705968
Ti       9.55157      1.80166      6.65961        -1.099809      0.758902     -0.362560
Ti       9.55434     13.46421      6.66472        -0.899142     -1.122087      0.154297
Ti       9.57947      1.87277     11.03209        -0.876011      0.063907      0.609247
Ti       9.54009     13.44249     10.94198         1.140481     -1.614378      0.679872
Ti       9.56166      5.75892      2.27078         0.430216      0.556723      0.383610
Ti       9.57769      5.65242     15.25114        -0.299462      1.029539      0.103030
Ti       9.50880      5.67036      6.70836         0.889996      0.124148     -1.127210
Ti       9.48563      5.68196     11.04749         0.513159      1.514309     -0.106440
Ti       9.62460      9.67576      2.29529        -0.328330     -1.342064      1.582089
Ti       9.69240      9.52849     15.33358        -1.345950      0.972533      0.541603
Ti       9.63121      9.54057      6.55904        -1.627754      1.095981      0.116983
Ti       9.61211      9.55539     10.94337        -1.448635     -0.108926      3.184146
O       1.85383      1.91066      0.58841        -0.058983      0.091482      0.157241
O       1.78044      1.92506     13.60636        -0.290575     -0.161036     -1.425398
O       1.83172     13.36683      0.70293         0.108471     -0.355235     -1.804067
O       1.70333     13.46137     13.52267         0.463574     -0.390572     -0.717133
O      13.32982      1.88903      0.53976        -0.393603     -0.051818     -0.573301
O      13.11815      1.76104     13.64287         0.478136      0.264134     -0.095064
O      13.53681     13.45500      0.61923        -0.292291     -0.358513     -1.232587
O      13.51172     13.25956     13.73396        -0.086972      0.659058     -2.870701
O       1.64802      1.83276      4.74043         0.530529      0.004807     -1.335679
O       1.96696     13.30125      4.79117        -0.075783      0.340107     -1.493301
O      13.42749      1.94907      4.82775        -0.031381     -0.222162      0.700097
O      13.25923     13.43372      4.91348        -0.138131      0.198787     -0.281961
O       1.91607      1.96384      9.34452        -0.149639     -0.308399     -0.969584
O       1.79177     13.41489      9.32730         0.203761     -0.130718      0.146111
O      13.26041      1.84944      9.29870         0.097828      0.106149     -2.377401
O      13.34645     13.25301      9.27763         0.045438      0.182419     -1.776740
O       1.90054      5.75998      0.61981        -0.385467      0.122128     -2.378146
O       1.66885      5.67819     13.63592         0.386388      0.330466      0.018467
O      13.31445      5.61989      0.35515         0.133874      0.378651      0.340876
O      13.38810      5.99450     13.58465         0.051063     -0.874582     -0.523535
O       1.79371      5.59510      4.79060         0.213019      0.423129     -1.370378
O      13.31206      5.69223      4.92273         0.025240      0.082697      0.042500
O       1.87423      5.65960      9.27722         0.279853     -0.198895     -1.022401
O      13.51141      5.67639      9.19235        -0.709986      0.251733     -0.379552
O       1.85834      9.55999      0.60600         0.165139     -0.035784     -2.051528
O       1.91703      9.55378     13.70352         0.121555      0.087281     -2.956449
O      13.53903      9.48515      0.65954        -0.209819      0.426300     -0.644111
O      13.41052      9.47793     13.67762         0.002758      0.139069     -2.239679
O       1.94856      9.58673      4.94157        -0.178478     -0.061920     -0.211824
O      13.34382      9.36669      4.89522         0.019821      0.244230     -1.437208
O       1.89922      9.49415      9.24752        -0.058829      0.581826     -0.115637
O      13.38812      9.60211      9.23814        -0.244371     -0.195683     -1.131212
O       5.86226      1.86812      0.50298        -0.805239      0.093139      0.041349
O       5.59352      2.09556     13.56836         0.477504     -0.756506     -0.000707
O       5.61297     13.51778      0.36378         0.003956     -0.033746      0.122493
O       5.80248     13.29703     13.72774         0.011138      0.032184     -1.392249
O       5.54243      1.91319      4.83662         0.448861     -0.220150     -0.931130
O       5.73133     13.53100      4.99849        -0.014340     -0.424592     -1.806094
O       5.66605      1.60118      9.25743        -0.105620      0.784767      0.211265
O       5.70416     13.37404      9.26397        -0.024372      0.344267     -1.585022
O       5.80200      5.73623      0.52077         0.196918      0.430635     -1.545165
O       5.84216      5.67153     13.63745        -0.530109     -0.208086     -0.574905
O       5.90184      5.73472      4.87845        -0.800567      0.203852     -1.485737
O       5.70706      5.73031      9.29734        -0.043535     -0.289277     -2.803355
O       5.81187      9.52803      0.55751        -0.070906     -0.633416     -0.590512
O       5.73085      9.46753     13.58655        -0.194837      1.092597     -0.622978
O       5.71436      9.55630      5.02560        -0.164488     -0.031015     -1.959528
O       5.71502      9.71266      9.21103        -0.093346     -0.626574     -0.755177
O       9.73098      2.08623      0.71216        -0.496300     -0.490842     -0.804134
O       9.57076      1.64898     13.54701         0.274065      0.648956     -1.197298
O       9.64545     13.44765      0.49722        -0.297174      0.005769     -0.807384
O       9.53125     13.44672     13.71678        -0.304476     -0.167239     -1.482566
O       9.35004      1.82815      4.90713         0.749317     -0.220898     -0.130560
O       9.46648     13.49693      4.91590         0.265060      0.101797     -0.940742
O       9.50420      1.77138      9.27530         0.578867      0.327453     -0.346247
O       9.72725     13.13129      9.17487        -0.753295      0.857570      0.731522
O       9.70401      5.69782      0.51534        -0.584325     -0.028408     -0.940370
O       9.59614      5.71939     13.45313        -0.105785      0.277316      0.513470
O       9.58912      5.73588      4.94718        -0.201652     -0.283200      0.278535
O       9.45044      5.76537      9.27216        -0.131656      0.023774     -1.544737
O       9.57911      9.55393      0.58100        -0.055764      0.361893     -1.337020
O       9.65705      9.53798     13.60335        -0.034062     -0.141041     -0.769111
O       9.51950      9.60596      4.76812         0.369362     -0.106373      0.394886
O       9.47096      9.64284      9.25477         0.332669     -0.014163     -2.640123
O       3.74298      1.81532      2.74954        -0.370298      0.474518      0.060511
O       3.82576      2.07931     15.67560        -0.836618     -0.479905      0.538768
O       3.83484     13.43053      2.69545        -0.826072     -0.097696      0.259275
O       3.72604     13.39351     15.67679         0.953277     -0.106564      0.449951
O      15.23383      2.01440      2.61788         0.479027     -0.331860      0.544484
O      15.24806      1.85833     15.82058         0.666254      0.545980     -0.345734
O      15.26476     13.25953      2.88260         0.280898      0.320950     -0.054899
O       0.03616     13.55044     15.73929        -0.326153     -0.310165      0.599764
O       3.77844      1.81274      6.94781        -0.355842      0.177784      0.369040
O       3.81568     13.38478      6.98766         0.147189      0.395780      0.514453
O       0.05101      1.78633      6.99218        -1.256013      0.404479      0.411054
O      15.30875     13.33746      6.92352         0.400519      0.321024      0.665750
O       3.69580      1.84385     11.49714         1.504095     -0.271024     -0.084487
O       3.79284     13.40894     11.40779         0.408463     -0.198782      0.493402
O      15.28255      1.90681     11.33860        -0.821717     -0.225901      0.545250
O      15.30123     13.49922     11.34845        -1.189352     -0.683839      0.567611
O       3.71984      5.82161      2.56165         1.893755     -0.357871      0.749381
O       3.84583      5.70742     15.86947        -0.237866      0.668446     -0.310443
O      15.17511      5.68079      2.61530         0.792438     -0.074716      0.317261
O      15.28271      5.67540     15.81911         0.164342      0.078502      0.079284
O       3.80387      5.56002      6.95558         0.029732      0.517056      0.151309
O      15.31834      5.66033      6.94308         0.236125     -0.051833      0.285635
O       3.87246      5.62022     11.37015        -0.914303      0.290089      0.390183
O      15.27823      5.81449     11.21085         0.477237     -0.414931      1.181466
O       3.83574      9.58213      2.71034         0.177012     -0.661401      0.373823
O       3.78708      9.63785     15.80077         0.654978     -0.633351      0.253467
O       0.08009      9.56426      2.76560        -2.509481     -0.330722      0.321921
O       0.04150      9.59570     15.81745        -0.139519     -0.151297      0.289730
O       3.70298      9.58052      7.09978         1.260186     -0.318770      0.547503
O      15.26134      9.58048      7.07289         0.675788      0.213323      0.072520
O       3.81566      9.64955     11.45817        -0.404451      0.264577      0.086830
O      15.34144      9.48192     11.38529        -0.069637      0.366146     -0.067021
O       7.52443      1.96680      2.67756         0.580473     -0.233285      0.288700
O       7.62412      1.88805     15.69891         1.258207      0.263754      0.274616
O       7.53192     13.45872      2.58611         0.306706     -0.218351      0.272396
O       7.62523     13.44580     15.84761        -0.302642     -0.049875      0.120713
O       7.63478      1.88877      7.13389         0.094255     -0.410246      0.070912
O       7.69778     13.37925      7.00061        -1.022893      0.396463      0.820090
O       7.68424      1.95398     11.42475        -0.552006     -0.597086     -0.173301
O       7.61814     13.27053     11.37372         1.361763      0.753841      0.156140
O       7.65690      5.84711      2.75544        -1.031938     -0.428232     -0.531827
O       7.73819      5.75317     15.78879         0.127232     -0.238663      0.090452
O       7.56511      5.62803      7.02583         1.256889     -0.058652      0.693526
O       7.60702      5.65981     11.29740        -0.504673     -0.070602      0.686533
O       7.64495      9.60742      2.73921        -0.211722     -0.204241      0.175905
O       7.69763      9.68387     15.73071        -0.919123     -0.256449      0.111432
O       7.64822      9.55738      6.92896         0.306078     -0.026549      0.577487
O       7.67685      9.52868     11.36669        -1.065197      0.796578      0.299007
O      11.49622      1.79007      2.83426        -1.530625      0.632050      0.143648
O      11.39791      1.84389     15.84212         0.290800     -0.041812      0.295052
O      11.44517     13.52854      2.59942        -0.549095     -0.174155      0.650776
O      11.52149     13.32507     15.64215         0.010701      0.168252      0.846646
O      11.50198      1.71241      7.00862         0.140380      0.927232      0.064692
O      11.48064     13.39641      7.04241        -0.292954     -0.163456      0.499226
O      11.46817      1.95883     11.48617        -0.890413     -0.538031     -0.286323
O      11.44397     13.40480     11.46704        -0.124045     -0.108074      0.055317
O      11.42715      5.67169      2.64834         0.867017      0.080121      0.643605
O      11.49507      5.85781     15.72412        -0.422201     -0.145622     -0.325614
O      11.45611      5.83997      6.99406        -0.138705     -0.373186      0.773810
O      11.42997      5.77123     11.18432         0.827899      0.063211      0.879284
O      11.44035      9.50147      2.65658         0.662081      0.238459      0.443207
O      11.52303      9.63948     15.76976         0.580036      0.061388      0.452462
O      11.46264      9.48438      7.04532        -0.177068      0.048465      0.009858
O      11.45903      9.40414     11.35356         0.360288      0.280016      0.009420
O       1.95175      3.81255      2.69721        -0.455238     -0.236044      0.448481
O       2.03583      3.83883     15.68570        -1.323086      0.084182      0.671282
O       1.78399     15.29512      2.56234        -0.286101      0.484093      1.071666
O       1.96646     15.33816     15.62421        -0.190162      0.694768      0.644652
O      13.25112      3.79992      2.55015        -0.021289      0.311760      0.642972
O      13.31939      3.76294     15.63153         0.019023      0.942625      0.147134
O      13.36974     15.34594      2.67349         0.456694     -0.245627      0.743266
O      13.41954     15.33955     15.78871        -0.637301     -0.072736      0.276531
O       1.85579      3.74382      6.79787         0.029021     -0.541307      0.852048
O       1.93328     15.32232      6.91101        -0.323586     -0.714316      0.355387
O      13.39895      3.78497      7.08185        -0.373555     -0.609249      0.080925
O      13.42930      0.01594      7.02021         0.005503     -0.657401      0.327129
O       1.82722      3.80577     11.50061        -0.326886      0.336203      0.066395
O       1.76259     15.28158     11.38454         0.348122      1.006940      0.522063
O      13.32897      3.76534     11.27731         0.125067      1.343613      0.689122
O      13.26549     15.30883     11.32139         0.262915      0.154290      0.409509
O       1.85552      7.57227      2.79962        -0.334015      1.359765      0.180782
O       1.88739      7.64238     15.76340         0.196048     -0.042392      0.507054
O      13.38362      7.59221      2.59189        -0.186183     -0.057890      0.775173
O      13.46291      7.73064     15.66541        -0.120542     -1.398293      0.929691
O       1.89229      7.59978      6.92600         0.010050     -0.132903      0.554953
O      13.47728      7.65235      7.06584        -0.488098     -0.337748      0.397930
O       2.02113      7.59772     11.35585        -0.117590      1.443314      0.441806
O      13.39741      7.66277     11.33468        -0.166265     -0.113428      0.288326
O       1.84437     11.38570      2.86162         0.573860      0.963942     -0.404301
O       1.89573     11.55397     15.81763        -0.356735     -0.708312      0.129726
O      13.15643     11.48165      2.65440         0.684625     -0.726264      0.545496
O      13.57212     11.49834     15.68833        -0.325011     -0.209465      1.250946
O       2.01863     11.53624      6.95766        -0.957458     -0.529240      0.646042
O      13.42181     11.43680      6.79772        -0.609197      0.739417      0.742416
O       1.76205     11.50223     11.54612         0.671471     -0.513969     -0.430993
O      13.35257     11.47648     11.37463        -0.015516     -0.547376      0.495016
O       5.61225      3.83770      2.68235         0.130972      0.698106     -0.054760
O       5.80741      3.83851     15.83366         0.075202      0.557946      0.393730
O       5.58657     15.34467      2.61324         0.368607     -0.257386      0.332340
O       5.53391      0.07982     15.63493         0.440323     -1.679262      0.182658
O       5.67559      3.72195      6.99971         0.268914      0.746876      0.522539
O       5.77248     15.35776      6.99464        -0.203385     -0.437425      0.570640
O       5.68270      3.72716     11.46301         0.184378      0.156928     -0.675290
O       5.75572     15.31799     11.53904         0.053063     -0.119099      0.054513
O       5.61086      7.61309      2.74196         0.626652      1.199829     -0.032953
O       5.84157      7.66935     15.50687        -0.514699      0.253902      1.580662
O       5.71108      7.55457      7.05302        -0.240947      1.059845      0.303101
O       5.64433      7.68196     11.38133         0.117198     -0.314226     -0.096844
O       5.56940     11.48948      2.40788         0.734487     -0.266281      0.973317
O       5.59570     11.46100     15.87091         0.727432      0.668935     -0.164263
O       5.70475     11.48810      7.02492        -0.050259     -0.056822      0.386016
O       5.80640     11.54122     11.31998        -0.700565     -1.285111      0.796424
O       9.43052      3.85925      2.72757         0.516642     -0.382226      0.450589
O       9.70160      3.80024     15.52294        -0.180004      0.297854      0.402122
O       9.38888     15.35964      2.64083         0.185017      0.172285      0.201836
O       9.54071      0.01324     15.67562         0.212053     -0.548546      0.999872
O       9.59255      3.68593      7.06095         0.185059      1.172152      0.327928
O       9.59139     15.29701      7.16433        -0.150890      0.403876      0.157590
O       9.56046      3.84098     11.35988         0.232521     -1.374212      0.328085
O       9.52275     15.27663     11.32951        -0.058648      0.073949      0.048923
O       9.58944      7.60499      2.62999        -0.365390      1.138646      0.410631
O       9.54870      7.69823     15.73610         0.184761     -0.741136      0.149295
O       9.41638      7.66366      6.88760         0.277290     -0.410311      0.812293
O       9.35821      7.65450     11.35873         0.884328     -0.256793      0.028853
O       9.49152     11.58378      2.74025         0.341647     -0.346266     -0.060524
O       9.51534     11.49026     15.76998         0.462598      0.046262      0.389082
O       9.44284     11.51048      6.90957         1.064639     -1.144281      0.439411
O       9.70667     11.44993     11.54205        -0.696117      0.377694     -0.551324
