  # total energy = -7881.97821543 
CRSYTAL
PRIMVEC
    15.3600000000000000    0.0000000000000000    0.0000000000000000
     0.0000000000000000   15.3600000000000000    0.0000000000000000
     0.0000000000000000    0.0000000000000000    17.440000000000000
PRESSURE
0.955728 0.898115 -1.03046 0.099013 0.338165 0.063783
PRIMCOORD
320 1
Pb       3.73905      3.84356      4.26668         0.089651      0.188375      0.199916
Pb       3.79873      3.84589     17.35138         0.155979      0.463056     -0.140365
Pb       3.81769      0.02503      4.23707         0.042066     -0.316196      0.611577
Pb       3.81142      0.07520      0.05401         0.130528     -0.504651     -0.576100
Pb      15.29136      3.80810      4.34973         0.297555      0.083148     -0.413676
Pb      15.31540      3.87557     17.41495        -0.072409      0.213457     -0.787416
Pb      15.25022     15.26296      4.29104         0.579011      0.360419      0.464368
Pb      15.28849     15.29692      0.03314         0.238299     -0.010806     -0.481133
Pb       3.81488      3.77737      8.74182         0.421799      0.317749     -0.518175
Pb       3.84252     15.30456      8.75415        -0.006674     -0.144566     -0.737308
Pb       0.04091      3.70159      8.68903        -0.360975      0.547766     -0.076315
Pb       0.02351      0.02837      8.64963        -0.166792     -0.704896      0.015198
Pb       3.66789      3.87307     13.04138         0.443136     -0.760105      0.368978
Pb       3.80656     15.24292     13.14945        -0.141130      0.436669     -0.324644
Pb      15.29041      3.81422     13.03677         0.321388      0.121369      0.086755
Pb       0.02766      0.03830     13.01551         0.113325     -0.444177     -0.461640
Pb       3.82097      7.62754      4.27792         0.262329      0.068639     -0.296519
Pb       3.76915      7.68262     17.39515         0.358380      0.325719      0.063575
Pb      15.31795      7.62312      4.38481        -0.021043     -0.043134     -0.522181
Pb      15.27082      7.72052     17.34432         0.165188     -0.311137      0.240382
Pb       3.93498      7.57993      8.77859        -0.632989      0.543800     -0.305946
Pb       0.04624      7.62583      8.74996        -0.196118     -0.154724     -0.609869
Pb       3.77393      7.70287     13.02743        -0.198861      0.398008      0.057759
Pb       0.04836      7.66438     12.98524         0.152501      0.107705      0.074846
Pb       3.75737     11.49526      4.25355         0.137637     -0.012565      0.129904
Pb       3.89103     11.46730     17.43950         0.011815     -0.278483     -0.288151
Pb      15.30917     11.53898      4.30636         0.241420     -0.291700      0.097539
Pb      15.34105     11.50017     17.40170         0.258423     -0.029445      0.008267
Pb       3.74344     11.54041      8.65682         0.330610     -0.401247     -0.317886
Pb      15.33074     11.41019      8.64914        -0.267691      0.850222     -0.403407
Pb       3.78533     11.54786     13.09285         0.258564     -0.364774      0.034771
Pb      15.27371     11.47777     13.15598         0.364912      0.120083     -0.768691
Pb       7.66587      3.80144      4.41991         0.203743      0.223515     -0.579832
Pb       7.63278      3.89865     17.31273         0.891465     -0.130674      0.034289
Pb       7.69533      0.09344      4.22793        -0.248937     -0.238510     -0.313732
Pb       7.73191      0.00083     17.43076         0.005479     -0.234449     -0.543215
Pb       7.71926      3.66366      8.77076        -0.367710      0.495190     -0.415970
Pb       7.62706     15.22322      8.63851        -0.129882      0.195888      0.069841
Pb       7.62912      3.77864     13.19055        -0.067085     -0.391136     -0.742530
Pb       7.58604     15.28945     13.15479         0.607760     -0.072822     -0.130536
Pb       7.59345      7.66691      4.31433         0.430120     -0.455591      0.079537
Pb       7.77085      7.60360     17.40954        -0.739047      0.357826     -0.156387
Pb       7.54006      7.69442      8.68432         0.461592     -0.019308     -0.497149
Pb       7.54948      7.61531     12.99802         0.137917      0.386612     -0.143777
Pb       7.67580     11.51833      4.34047        -0.120186      0.501470     -0.754905
Pb       7.75133     11.49657      0.06620         0.002901     -0.055805     -0.525886
Pb       7.56645     11.41778      8.68847        -0.007135      0.013455     -0.265682
Pb       7.61505     11.39954     13.10811        -0.050304      0.532049     -0.061168
Pb      11.45286      3.82520      4.39890         0.138461      0.203978     -0.313793
Pb      11.52942      3.82145     17.34404        -0.411748      0.193085     -0.536677
Pb      11.37614      0.04398      4.28407         0.244848     -0.349055     -0.566648
Pb      11.61941     15.34941     17.35736        -0.122726     -0.129801      0.098160
Pb      11.49876      3.80474      8.74154         0.200509      0.361460     -0.191097
Pb      11.48858     15.21450      8.64100         0.823830      0.117098      0.045883
Pb      11.51695      3.84452     13.07882        -0.072611     -0.175772     -0.478343
Pb      11.55102     15.32522     12.96384        -0.099127      0.019152     -0.246946
Pb      11.43176      7.78785      4.32489         0.170193     -0.715717      0.161293
Pb      11.55230      7.58528     17.41101        -0.000269      0.553445     -0.457132
Pb      11.41598      7.59712      8.73386         0.007514     -0.352226     -0.795322
Pb      11.56315      7.73446     12.87669        -0.334747     -0.056716      0.495683
Pb      11.48085     11.48399      4.45321         0.226036      0.503544     -0.740440
Pb      11.57600     11.52719      0.01576        -0.376330     -0.373903     -0.124448
Pb      11.48715     11.53152      8.74431         0.325683      0.006677     -1.046033
Pb      11.43396     11.45393     12.99774         0.106608      0.278534     -0.005183
Ti       1.95806      1.94978      2.24700        -0.988848     -0.056276      0.927762
Ti       1.92651      1.90450     15.45193        -1.094138      0.272535     -1.556199
Ti       1.96357     13.49018      2.32317        -0.275874     -0.876548     -0.059768
Ti       1.95435     13.42877     15.42221        -0.060317      0.000976     -0.237740
Ti      13.49584      1.87810      2.31033        -0.732997      0.441947     -0.049036
Ti      13.45967      1.90752     15.33696         0.927672      0.333050      0.478645
Ti      13.50776     13.39651      2.31277        -1.258457     -0.573997      0.241356
Ti      13.47307     13.41917     15.37794         0.237372     -0.251336     -0.514816
Ti       1.93577      1.90331      6.63671        -0.060491      0.009358     -1.507560
Ti       1.98240     13.42666      6.64256        -0.397109      0.025742      0.405398
Ti      13.42881      2.02505      6.63501        -0.028963     -1.315102      0.841293
Ti      13.49035     13.53188      6.64943         0.442977     -1.408182      0.146020
Ti       1.93064      1.94110     11.02477         0.506436     -0.739648      0.785649
Ti       2.04108     13.47339     11.06568        -2.540075      0.004494     -0.699477
Ti      13.47578      1.93961     10.98777        -0.216014     -0.297881     -0.797828
Ti      13.46911     13.43829     11.05619         1.244946      0.662729     -1.699512
Ti       1.86801      5.78998      2.31146         0.063183     -0.494833     -0.757959
Ti       1.94699      5.76731     15.39218        -1.254017     -0.187726      0.309489
Ti      13.40377      5.76882      2.25087         0.509998     -0.768447      0.346196
Ti      13.41508      5.77851     15.29508         0.571412     -0.364292     -0.129546
Ti       1.93452      5.70019      6.64046        -0.549228      0.560021     -0.121548
Ti      13.49027      5.71474      6.73479        -1.017240      0.843152      0.807646
Ti       1.95027      5.75684     11.03481        -0.929004      0.157283     -0.116921
Ti      13.44380      5.79881     11.07100         0.217224     -0.628824     -1.050023
Ti       1.88410      9.58046      2.34534         0.177821      0.156606     -1.159386
Ti       1.87715      9.58461     15.41180         1.322105     -0.376943     -1.346757
Ti      13.37618      9.53029      2.34319         0.895454      0.563759     -1.358360
Ti      13.42400      9.61102     15.35757        -0.420993     -0.235152     -0.595538
Ti       1.83627      9.54407      6.63826         1.359915      0.635546      0.337862
Ti      13.38660      9.55017      6.64903         0.098869      1.315863      0.278268
Ti       1.86581      9.68998     11.01682         0.285106     -0.604700      0.941577
Ti      13.42128      9.64602     10.97306         0.481508     -0.168494     -0.202856
Ti       5.71266      2.00628      2.28066         1.394922     -0.406271      1.053243
Ti       5.73403      1.93009     15.41136         0.945050     -0.076003      0.742361
Ti       5.71819     13.49756      2.22221         1.336828     -0.328368      0.623919
Ti       5.78867     13.42392     15.58623         0.256090     -0.660800     -1.362994
Ti       5.74981      1.93787      6.64708         0.248343     -0.378073      0.721910
Ti       5.81838     13.41340      6.57949        -1.210649      0.041295     -0.489475
Ti       5.76281      1.81985     11.04374         0.246822      1.158598      0.746911
Ti       5.82014     13.42464     11.09592        -0.006102     -0.824454     -1.118151
Ti       5.82647      5.73776      2.29889        -0.175327      0.317356     -0.593191
Ti       5.74256      5.78861     15.34975         0.167918      0.226618      0.515550
Ti       5.71671      5.80961      6.70023         0.526436     -0.913226      0.569106
Ti       5.66941      5.66448     11.09912         0.972408      0.031698     -1.453490
Ti       5.79701      9.61823      2.38748        -0.998876     -0.293183     -1.892144
Ti       5.82301      9.56208     15.38865        -0.672038      0.112884      0.550760
Ti       5.65320      9.64854      6.60694         0.147720     -0.112252      0.180578
Ti       5.64093      9.60719     11.05202         0.106265      0.902662     -0.954575
Ti       9.59798      1.97704      2.25243        -0.650041     -1.003126      1.046079
Ti       9.71942      1.76989     15.36558        -1.205399      0.747209      0.210478
Ti       9.59898     13.47809      2.21825         0.485718     -0.461098      0.682668
Ti       9.67745     13.30125     15.40646        -1.482110      0.788618      0.045507
Ti       9.59911      1.86441      6.72656         0.324992      0.592053     -0.175695
Ti       9.61091     13.40910      6.59838         0.483916     -0.930039     -0.051306
Ti       9.66272      1.85078     11.00418        -0.613279      0.715828      1.665906
Ti       9.54335     13.39054     11.00139         0.825128      0.405362     -0.020468
Ti       9.69149      5.76582      2.27853        -1.454688     -0.138448      1.130456
Ti       9.55516      5.83965     15.23726         0.445627     -1.547578      0.580845
Ti       9.56095      5.71269      6.68334         0.567507      0.640533      0.210286
Ti       9.53646      5.76579     11.14731         0.558813     -0.264533     -1.583257
Ti       9.57461      9.63210      2.29240         0.213295      0.325873      0.434440
Ti       9.63269      9.52819     15.33722        -0.332969      0.938682      0.630113
Ti       9.59074      9.59369      6.52650        -0.588852     -0.281450      1.946074
Ti       9.49118      9.62623     10.96989         0.250145     -0.092411      0.023784
O       2.11651      1.99590      0.47683        -0.374448     -0.273845     -0.343663
O       1.83237      1.96036     13.64209         0.256974     -0.185081      0.592365
O       1.98825     13.53470      0.58362        -0.058636     -0.189885     -1.136547
O       1.79587     13.59025     13.64564         0.651097     -0.632934     -0.247404
O      13.33491      1.75297      0.54172         0.358883      0.272343      0.437208
O      13.48068      1.99636     13.58045        -0.097825     -0.222650     -0.277569
O      13.62778     13.41746      0.54648        -0.367552      0.148528     -0.742341
O      13.52285     13.47279     13.62288         0.052663      0.020222     -0.456121
O       1.90457      2.01153      4.82936         0.116991     -0.480305      0.952702
O       2.09758     13.40640      4.90109        -0.278127      0.135437     -0.794595
O      13.53690      1.97813      4.87533        -0.414510      0.046486     -0.691858
O      13.53272     13.46240      4.87371        -0.232699     -0.142748     -1.061483
O       2.06756      1.89638      9.27743        -0.447856      0.163721     -0.792307
O       1.96640     13.65441      9.30338         0.569707     -0.635654     -0.490880
O      13.48747      2.00316      9.18737        -0.080984     -0.211843      0.613960
O      13.46936     13.50284      9.22446        -0.273690     -0.251506      0.725834
O       1.89422      5.82738      0.49463         0.060865     -0.467867      1.015269
O       1.86615      5.77421     13.64467         0.224185      0.068744     -1.322293
O      13.44868      5.77463      0.49596        -0.343780      0.030870     -0.812047
O      13.54144      5.74896     13.50949        -0.306374      0.027516      0.041466
O       1.76532      5.71917      4.85440         0.671125      0.191573     -0.078712
O      13.31813      5.60333      5.02850         0.634319      0.205536     -1.669321
O       1.94153      5.63079      9.29799         0.173027      0.383149     -0.686531
O      13.49318      5.77483      9.29552        -0.034384      0.118876     -0.459098
O       2.02164      9.45709      0.52563        -0.552459      0.264014      0.646503
O       1.89378      9.60337     13.55976         0.019352     -0.058813      1.445721
O      13.49499      9.45022      0.51972        -0.275879      0.315320      0.154238
O      13.38239      9.59347     13.56860         0.153614      0.098744      0.624569
O       1.96087      9.71159      4.87194        -0.265974     -0.683697     -0.464246
O      13.34239      9.70276      4.84276         0.034447     -0.468514     -0.101676
O       1.99465      9.66165      9.28001        -0.590422      0.055031     -0.767678
O      13.57920      9.76959      9.19599        -0.455604     -0.630435      0.508745
O       5.64298      1.99010      0.55397         0.058092     -0.009701     -1.185679
O       5.74880      2.15075     13.71478         0.035980     -0.700402     -1.173920
O       5.72688     13.56125      0.45446        -0.250615     -0.303298     -0.063749
O       5.88532     13.34741     13.76085        -0.270465      0.217827     -0.513994
O       5.95532      1.86280      4.90807        -0.571724      0.303577     -0.319931
O       5.75180     13.38676      4.78146         0.307581      0.051524      0.718633
O       5.81694      1.89803      9.29185        -0.150953     -0.098594     -0.557710
O       5.84086     13.48825      9.31246        -0.187498      0.057138      0.213141
O       5.84218      5.77770      0.50801        -0.018524     -0.085417      0.279170
O       5.73815      5.81536     13.59148         0.106260     -0.171929     -0.987880
O       5.81132      5.77568      4.95961        -0.267794      0.023926     -0.176594
O       5.56550      5.75395      9.27626         0.415089     -0.103124      0.537640
O       5.78350      9.50297      0.57805         0.053500     -0.016433      0.611521
O       5.71250      9.65018     13.61065         0.233771     -0.052450     -0.266576
O       5.66147      9.59966      4.82197        -0.020870     -0.011650     -0.432550
O       5.64106      9.67102      9.23413         0.508854     -0.198801      0.933604
O       9.40307      2.02589      0.55486         0.828577     -0.416009     -2.104584
O       9.80973      1.76215     13.64209        -0.282997      0.419913     -0.675977
O       9.57008     13.38921      0.46947         0.377954      0.320823     -1.086306
O       9.47443     13.30972     13.67157         0.218719      0.027178     -1.004756
O       9.56656      1.82516      4.96227         0.102233     -0.079128     -0.506750
O       9.53908     13.26824      4.80436         0.287279      0.582536      0.863109
O       9.63022      2.05804      9.27404         0.058829     -0.332658     -1.101262
O       9.67270     13.34167      9.22812        -0.118141      0.218112     -0.158801
O       9.56967      5.69807      0.54147         0.252600      0.373558     -0.231713
O       9.49914      5.91768     13.47482        -0.015648     -0.230242     -0.781558
O       9.60686      5.69974      4.94566         0.145635      0.031372     -1.174459
O       9.67316      5.76348      9.28905        -0.374998      0.051806      1.253448
O       9.57799      9.62655      0.55211         0.025195     -0.275450     -0.587164
O       9.64096      9.63934     13.58497         0.071218     -0.050869     -0.139448
O       9.58517      9.70088      4.76666         0.502331     -0.065429     -0.588982
O       9.37368      9.66949      9.18707         0.520366     -0.233561      0.539659
O       3.82319      1.89171      2.70533         0.399304      0.055310      0.133328
O       3.82103      1.94149     15.67069         0.245096      0.332361      0.685761
O       3.86526     13.52036      2.67374         0.045144     -0.173070      0.011471
O       3.82621     13.25668     15.70951        -0.068214      0.567903      0.454580
O       0.08074      1.96438      2.61334        -1.290030     -0.178011     -0.207989
O      15.34678      1.90989     15.82534         0.114092     -0.346278      0.311770
O       0.07383     13.40573      2.68628        -1.336582     -0.365117      0.413260
O       0.05789     13.32110     15.80449        -0.017160      0.358313      0.460258
O       3.86891      1.96738      6.94861         0.167916     -0.226605      0.234115
O       3.91272     13.49315      7.02958        -0.402431     -0.289375      0.379854
O      15.34427      1.89946      7.06059         0.529007      0.444624      0.043131
O       0.07560     13.49217      6.91989        -0.288497      0.360082      0.526018
O       3.84567      1.87525     11.47738        -0.029592      0.630260      0.162935
O       3.88041     13.34579     11.45809        -0.027702      0.317788      0.510830
O       0.00526      1.99286     11.41014         0.070600     -0.346009     -0.133016
O       0.07055     13.62452     11.29486        -0.637545     -0.823233      0.821851
O       3.87963      5.71396      2.71474        -0.976137      0.106425      0.027259
O       3.83233      5.72267     15.64808         0.335636     -0.051824      0.493885
O      15.31684      5.71450      2.65371         0.716604     -0.146578      0.327131
O      15.28272      5.63061     15.71659        -0.019562      0.568534      0.467851
O       3.79576      5.71073      7.11661         0.626712      0.231727     -0.281117
O       0.03116      5.73854      7.03423         0.422707      0.228871      0.536343
O       3.83956      5.63267     11.46313        -0.844816      0.451622      0.374155
O       0.05789      5.88813     11.34485        -0.671275     -0.294118      0.414393
O       3.81729      9.53749      2.57477        -0.047380     -0.020298      0.925509
O       3.91958      9.35388     15.67933        -0.599564      0.684208      0.475350
O      15.33011      9.58013      2.67056         0.382324      0.158318      0.529003
O       0.03352      9.60037     15.74721        -0.721218     -0.092215      0.126689
O       3.84948      9.67628      7.11718        -0.871142      0.025503     -0.296578
O       0.00558      9.62761      7.02512        -0.138387     -0.125594      0.055425
O       3.76604      9.85087     11.42605         0.595983     -0.938176      0.258889
O      15.32653      9.58304     11.50453        -0.574118     -0.409382     -0.412893
O       7.65488      1.96910      2.72457        -0.249468     -0.039312      0.116774
O       7.76334      1.84931     15.63183        -0.621161     -0.017781      0.441522
O       7.74805     13.43099      2.52074        -1.614878     -0.140704      0.499959
O       7.65832     13.49059     15.85305         0.922667     -0.227914      0.548187
O       7.73830      1.85098      7.10815        -0.448981      0.289718      0.328997
O       7.71959     13.45365      7.01877         0.550187     -0.358213     -0.066495
O       7.63622      1.82945     11.44738         0.262586      0.550645      0.318332
O       7.71783     13.32839     11.33722        -0.710767      0.645651      0.622407
O       7.74476      5.80369      2.80166         0.384096     -0.380485     -0.307705
O       7.67837      5.70152     15.67569         0.414494      0.443657      0.157525
O       7.68039      5.82774      7.07667        -0.667102      0.019436      0.347069
O       7.56916      5.77489     11.35861         1.395189      0.336900      0.372169
O       7.64883      9.54066      2.66399         0.664398      0.088054      0.482324
O       7.76250      9.51698     15.70546        -0.497092      0.338967      0.159801
O       7.57475      9.64888      6.91030         1.187292     -0.138967      0.309668
O       7.67406      9.61760     11.45814        -0.903133     -0.019841     -0.137096
O      11.47496      1.76943      2.69190         1.272143      0.221573      0.110999
O      11.60830      1.92186     15.74150        -0.818432     -0.615919      0.704691
O      11.52213     13.49948      2.53926         0.552408      0.407003      0.555053
O      11.54899     13.26420     15.64445         0.935135      0.417329      0.746179
O      11.52826      2.06132      7.04545         0.270091     -0.582259     -0.011414
O      11.58961     13.40445      6.93779        -1.315598      0.237313      0.481098
O      11.57315      1.89207     11.43899        -0.490710     -0.461759     -0.115117
O      11.53861     13.47561     11.35676        -0.378035      0.012761      0.424495
O      11.52446      5.74788      2.64206         0.004430      0.182047      0.358291
O      11.51473      5.72919     15.53726         0.069580      0.474210      0.708039
O      11.55001      5.84674      6.98977        -0.324135     -0.012337      1.173018
O      11.54430      5.85192     11.36615        -1.321282     -0.514758      0.563941
O      11.54868      9.48350      2.57235        -0.722734      0.212446      0.664170
O      11.51941      9.57136     15.82965         0.624232      0.240156     -0.018213
O      11.53077      9.59649      7.13351        -0.142822     -0.221316     -0.421979
O      11.49565      9.63833     11.45813        -0.056595      0.204989     -0.774701
O       1.92311      3.78156      2.75415         0.261281      0.884986     -0.510560
O       1.77484      3.88689     15.71911         0.985497     -1.204764      0.736173
O       1.80951     15.29997      2.74978         0.839438      1.707155     -0.124452
O       2.01171     15.30718     15.74439        -0.138384      0.737181      0.558771
O      13.37589      3.86110      2.64615         0.124686     -1.168165      0.109753
O      13.37596      3.76659     15.83727         0.345113      0.562427     -0.161555
O      13.57606     15.30353      2.64306        -0.277196      0.851952      0.299511
O      13.50248     15.28437     15.82056        -0.352557      0.536174      0.071833
O       1.95147      3.85885      6.93938        -0.181883     -0.872900      0.732006
O       1.94989      0.05731      7.06097         0.270130     -0.249070      0.027769
O      13.49157      3.86402      7.17049         0.002509     -0.419044     -0.098960
O      13.42743      0.02529      6.96227        -0.180574      0.885030      0.438777
O       1.83504      3.81786     11.37388         0.546838      0.513995      0.511055
O       1.98687      0.01383     11.37983         0.223273      0.427433      0.865222
O      13.32963      3.83548     11.34918         0.580921      0.417431      0.531127
O      13.53834      0.01381     11.34107        -0.710087      0.448588      0.554635
O       1.89723      7.62721      2.73207        -0.130212      0.361439      0.376858
O       1.88145      7.61825     15.74778        -0.139871      0.786817      0.243953
O      13.55736      7.61409      2.65352        -0.627109      0.343760      0.763772
O      13.46161      7.67865     15.71562        -0.103854     -0.055614      0.087954
O       1.94925      7.70139      7.08955        -0.170737     -0.532422     -0.151355
O      13.57468      7.74014      7.00671        -0.185530     -0.788739      0.311814
O       1.98788      7.70795     11.36540         0.256310     -0.254036      0.271115
O      13.28538      7.69221     11.26408         0.913350      1.045323      0.338995
O       1.85145     11.53955      2.72619         0.702849     -0.660600     -0.215696
O       2.04858     11.41773     15.87211        -0.570158      0.104427     -0.136152
O      13.23395     11.47728      2.50687         1.045918      0.408579      0.753754
O      13.57598     11.52769     15.66387        -0.435050     -1.079487      0.701852
O       1.85958     11.52648      6.99772         0.634475      0.157438      0.483064
O      13.47243     11.57148      7.01780         0.106139     -0.585812      0.307002
O       1.75969     11.50254     11.45876         0.291470      1.430499      0.138276
O      13.49518     11.51980     11.38515        -0.103943      0.258616      0.393254
O       5.80438      3.90102      2.70145        -0.243373     -1.300706      0.372812
O       5.85398      3.88613     15.84104        -0.850127     -0.887672     -0.271276
O       5.81258      0.03672      2.57818        -0.247920      0.106761      0.373526
O       5.70509     15.28663     15.77596        -0.302134      2.121808      0.228921
O       5.80652      3.82762      7.14021         0.134492     -0.091443     -0.271407
O       5.81288     15.28065      7.05016         0.054995      0.974593      0.092309
O       5.85120      3.82755     11.48973        -0.557569     -0.362060     -0.128087
O       5.69250     15.31686     11.50161         0.261405     -0.219474      0.400272
O       5.79728      7.54917      2.79363        -0.406428      1.659902      0.196793
O       5.90492      7.64017     15.73738        -0.166612     -0.023719      0.152142
O       5.66715      7.73060      7.13740         0.186020     -0.609220     -0.213828
O       5.60650      7.73077     11.30376         0.077855     -0.412012      0.628312
O       5.76807     11.54032      2.57842        -0.094037     -0.095833      0.185889
O       5.79661     11.49076     15.92115         0.046380     -1.173025      0.081650
O       5.77525     11.52223      7.09031        -0.113568      0.626407     -0.248437
O       5.75194     11.52216     11.36208         0.361796      0.057830      0.680618
O       9.66755      3.74658      2.70949         0.017685      2.174836      0.495617
O       9.64732      3.94462     15.71437         0.032514     -0.875086     -0.085952
O       9.52578      0.01301      2.61721         0.173330      0.104739      0.457179
O       9.69890     15.24726     15.60566         0.248662      0.853891      1.142674
O       9.65499      3.85162      6.94391        -0.519843     -0.630528      0.765263
O       9.73262     15.32298      7.12477        -0.476563     -0.321313     -0.476854
O       9.66284      3.75190     11.52903        -0.549443      1.243169     -0.010079
O       9.45264      0.03902     11.40191         0.902655     -1.480777      0.086483
O       9.74721      7.74029      2.73310        -0.970600     -1.240210     -0.230487
O       9.59834      7.66531     15.84365         0.353992     -0.230952     -0.159954
O       9.60342      7.73660      6.90697        -0.014184      0.080325      0.523113
O       9.52470      7.75054     11.37865         0.276684     -0.859733     -0.041192
O       9.63779     11.52673      2.56237         0.033270     -0.426273      0.614659
O       9.57877     11.49723     15.88221         0.043000     -1.263780     -0.026955
O       9.74770     11.46080      6.99391        -0.656066      0.953909     -0.072290
O       9.58975     11.54088     11.44445         0.268002     -0.502817     -0.088789
