  # total energy = -7878.76184506 
CRSYTAL
PRIMVEC
    15.2000000000000000    0.0000000000000000    0.0000000000000000
     0.0000000000000000   15.2000000000000000    0.0000000000000000
     0.0000000000000000    0.0000000000000000    17.000000000000000
PRESSURE
7.67735 7.39129 5.0458 -0.243426 0.013488 -0.119644
PRIMCOORD
320 1
Pb       3.83998      3.61612      4.13466         0.058296      0.347204      0.290686
Pb       3.76339      3.69481     16.85575         0.152452      0.204901      0.002886
Pb       3.81902     15.11283      4.11406         0.011076     -0.275351      0.816069
Pb       3.59555     15.18645     16.88651         0.877129     -0.054894      0.551844
Pb       0.01867      3.53335      4.15403        -0.198952      0.825705      0.361114
Pb      15.14303      3.82553      0.03239        -0.326045     -0.144855     -0.040839
Pb      15.13452     15.07168      4.30319         0.433786     -0.070074     -0.349779
Pb      15.02438     15.19587      0.12062         0.011206      0.104406     -0.455071
Pb       3.68402      3.95574      8.59365         0.229852     -0.629185     -0.719600
Pb       3.80763     15.09512      8.58706        -0.497528      0.491759     -0.882627
Pb       0.11255      3.77757      8.52434        -0.206437      0.212341     -0.351181
Pb      15.16684     15.16685      8.26594         0.934172     -0.155216      0.311451
Pb       3.71974      3.82006     12.68325        -0.071332      0.048865     -0.185137
Pb       3.65665      0.10493     12.79183         0.074918     -0.494682     -0.319624
Pb      15.04387      4.03262     12.70990         0.180008     -1.065164     -0.228303
Pb      15.12968      0.15861     12.78448        -0.246932     -0.793833     -0.294547
Pb       3.83644      7.48451      4.15248         0.119393     -0.299833      0.170036
Pb       3.67351      7.53687     16.80223         0.532702     -0.308103      0.096040
Pb       0.01102      7.60363      4.28983        -0.494613     -0.395557     -0.760054
Pb      14.93578      7.54454      0.03819         0.563052     -0.136089     -0.283562
Pb       3.84808      7.64480      8.51654        -0.166875     -0.240944     -0.512912
Pb       0.13622      7.61787      8.44419        -0.195102      0.166738     -0.235363
Pb       3.76265      7.68019     12.76611         0.000890     -0.452462      0.139117
Pb       0.05398      7.69476     12.72858        -0.724370      0.035017      0.174317
Pb       3.90729     11.15669      4.14251        -0.256195      1.006125      0.834845
Pb       3.75291     11.37361      0.04197        -0.106530     -0.322330     -0.588982
Pb       0.16334     11.26796      4.16792        -0.561089      0.371582     -0.070066
Pb      15.08676     11.36446      0.06970         0.572068     -0.130830     -0.452977
Pb       3.83177     11.38929      8.55095         0.165684      0.061280     -0.127519
Pb       0.17914     11.46609      8.31871        -0.798830     -0.448066      0.893685
Pb       3.76636     11.49522     12.77710        -0.133677      0.270270     -0.678481
Pb       0.04571     11.42692     12.90343        -0.091696      0.363667     -0.997651
Pb       7.55124      3.74165      4.37124        -0.033467      0.239280     -0.787657
Pb       7.55091      3.72180     16.86202        -0.209730      0.144418     -0.127700
Pb       7.61220     15.08695      4.22137        -0.334791     -0.014728      0.065435
Pb       7.59805      0.00229     16.86867         0.139534     -0.495537      0.116640
Pb       7.37404      3.73182      8.77428         0.589359      0.126594     -0.853361
Pb       7.63083      0.01246      8.59979         0.000968     -0.040340     -0.763559
Pb       7.66934      3.91511     12.78282        -0.395047     -0.745955     -0.257886
Pb       7.49449     15.02789     12.79936         0.785437      0.541657     -0.458072
Pb       7.64502      7.53834      4.06033        -0.559674     -0.944622      0.856308
Pb       7.72848      7.64822     16.99351        -0.782738     -0.378436     -0.237025
Pb       7.49101      7.59055      8.52145         0.530537     -0.592824      0.017699
Pb       7.48754      7.65584     12.66344         1.137626      0.039750      0.428780
Pb       7.62808     11.38488      4.34836         0.131588      0.106084      0.109325
Pb       7.51690     11.36822     16.90865         0.355420      0.492840      0.090405
Pb       7.70150     11.37067      8.69151        -0.411608      0.228702     -0.649734
Pb       7.61787     11.47327     12.78840         0.200022     -0.026483     -1.077782
Pb      11.21642      3.75982      4.43255         0.645923      0.264482     -0.330691
Pb      11.24245      3.68371     16.99424         0.726651      0.314765     -0.721516
Pb      11.30410     15.15216      4.25275         0.727231     -0.261868      0.278060
Pb      11.34084      0.14256      0.11246         0.119726     -0.506480     -1.102810
Pb      11.41918      3.88115      8.52491        -0.430964     -0.445074     -0.421920
Pb      11.51496      0.02136      8.33381        -0.356725     -0.049528      0.267779
Pb      11.33878      3.84248     12.68718         0.620078     -0.265907     -0.173607
Pb      11.44760     15.18770     12.59274        -0.391515      0.096351      0.113399
Pb      11.27188      7.53968      4.30021         0.640725     -0.339538     -0.092268
Pb      11.42295      7.62864     16.98741        -0.425765     -0.502866     -0.053884
Pb      11.38628      7.57664      8.62294        -0.163838     -0.036508     -1.013875
Pb      11.51175      7.74255     12.81640        -0.087528     -0.074422     -0.613798
Pb      11.27429     11.31316      4.26889         0.300356      0.241353      0.124390
Pb      11.36329     11.44342     16.99886        -0.456728     -0.100287     -0.088891
Pb      11.48376     11.34913      8.34208         0.144464      0.208540      0.314652
Pb      11.43399     11.55444     12.54774         0.009156     -0.444912      0.375267
Ti       1.91495      1.81381      2.21283        -0.777787     -1.027713      0.329253
Ti       1.74662      1.84494     14.99325         0.582500      0.683975     -0.075332
Ti       2.00471     13.20059      2.14653        -0.772727      0.683240      0.859668
Ti       1.85382     13.23245     15.05003        -0.305989     -0.847518      0.059384
Ti      13.24080      1.82608      2.30392         0.340288      0.396059     -0.144806
Ti      13.30004      1.87905     14.87220        -1.705493     -0.252387      1.052270
Ti      13.33341     13.18365      2.27486        -0.307611      0.438525      1.726138
Ti      13.21672     13.24296     15.00463         0.681406      1.363302     -0.513242
Ti       1.92999      1.88067      6.40778         0.880720     -1.270908     -0.232435
Ti       2.00341     13.15307      6.37120         0.489065      2.713874     -0.132094
Ti      13.35592      1.99479      6.57002        -1.603898     -0.585322     -0.088623
Ti      13.35220     13.22240      6.35989        -0.185203      0.149508      0.183676
Ti       1.76081      1.90838     10.71311         0.711551      0.195619     -0.429348
Ti       1.89807     13.38786     10.78229        -0.244158     -1.595333      0.026909
Ti      13.30837      1.89188     10.59023        -0.610559      0.740201      1.165266
Ti      13.41648     13.37577     10.59134        -0.286588     -1.268078      0.689795
Ti       1.86747      5.62874      2.19212        -0.155138     -0.435618      1.505383
Ti       1.81961      5.56905     14.87911        -0.095347      0.626064      0.100731
Ti      13.29204      5.58088      2.26892        -0.405797      0.326930      0.408462
Ti      13.20865      5.58600     14.97795        -0.259412      0.567746      1.968389
Ti       1.94605      5.64518      6.33475         0.046532     -0.053202      1.539259
Ti      13.40740      5.68964      6.41488        -1.273501     -0.857931      0.590619
Ti       1.84607      5.75539     10.74422         1.173215     -0.591086      0.397038
Ti      13.31572      5.82055     10.62556        -0.359867     -0.168121      0.971085
Ti       1.92421      9.38821      2.15314        -0.569948      0.070043      0.550678
Ti       1.79805      9.39913     14.98001         0.094738      0.353443      1.740232
Ti      13.21632      9.44604      2.27013         0.265056     -1.027920      1.558941
Ti      13.22608      9.54585     15.02754        -0.177080     -1.238937     -1.245925
Ti       1.93480      9.42603      6.42163         1.021377     -0.416748      0.705302
Ti      13.27154      9.39472      6.48077         0.482100      0.279140     -0.371039
Ti       1.91676      9.52419     10.81308        -1.139616      1.365857     -0.321426
Ti      13.30470      9.59992     10.64283         0.593751     -0.171704      0.121218
Ti       5.70781      1.84130      2.17135         0.832015     -0.701075     -0.786223
Ti       5.63508      1.78017     14.92196        -0.030140      0.823006      1.711687
Ti       5.75809     13.18022      2.20787        -0.019355      1.003716      0.323226
Ti       5.60828     13.25495     14.93404         1.407068      0.174578     -0.161440
Ti       5.67999      1.84864      6.54600        -1.069556      0.647993      0.086446
Ti       5.78651     13.26265      6.54001        -0.995057      0.046552      1.538869
Ti       5.60021      1.85727     10.76786         0.536949      0.246382      0.657223
Ti       5.71217     13.41576     10.69106        -0.310204     -1.878462      0.808785
Ti       5.64335      5.64689      2.05763         0.603388     -0.461872      1.152633
Ti       5.70574      5.63287     14.82547        -0.710558      0.453458      1.621544
Ti       5.72463      5.61418      6.46420        -0.425524      0.987232      0.131424
Ti       5.71939      5.72752     10.84408        -0.839725     -0.739670      0.385045
Ti       5.71292      9.41453      2.20737         0.534491     -0.283143     -1.106010
Ti       5.65035      9.50873     14.88110        -0.543816     -0.929954      1.792837
Ti       5.75900      9.46023      6.50291        -0.849590      0.221611      1.047371
Ti       5.70500      9.56894     10.78849        -0.032268      1.064275      0.348115
Ti       9.51828      1.78629      2.28111        -0.963992      0.786594     -0.279435
Ti       9.44661      1.86147     14.80628         1.052675     -0.523408      2.013131
Ti       9.50129     13.21659      2.20753        -0.056480     -0.396365     -0.050757
Ti       9.53331     13.29432     14.84099        -0.034670      0.065267      1.693541
Ti       9.42052      1.90799      6.53517         1.073063     -0.150244      2.895814
Ti       9.55497     13.30011      6.54422        -1.195014     -0.414418     -0.188595
Ti       9.44933      1.89502     10.66043         0.077243     -0.672434      0.034097
Ti       9.54612     13.29419     10.56204         0.223405      0.157520      1.359129
Ti       9.52198      5.59041      2.11579        -0.807462     -0.139788     -0.237289
Ti       9.44049      5.73385     14.94106         0.742186     -0.505843      2.038135
Ti       9.49534      5.67093      6.57612        -0.292348     -0.071540      0.211530
Ti       9.51560      5.65509     10.75525         0.059580      1.133824      0.101982
Ti       9.45185      9.43385      2.28806         0.819824      0.715912      1.278681
Ti       9.43424      9.55496     14.87576         0.705546     -0.509278     -0.115370
Ti       9.43512      9.47404      6.61724         0.909119     -0.177671      0.221385
Ti       9.55471      9.43998     10.67677        -0.324367      1.006245      2.125153
O       1.83672      1.63622      0.43106        -0.046851      0.623338     -0.047116
O       1.75584      2.00462     13.22352        -0.041321     -0.449497     -0.215508
O       1.96662     13.11044      0.33585        -0.224205      0.440696      0.234732
O       1.93330     13.12620     13.27651        -0.345206      0.440085     -0.096008
O      13.17271      1.85208      0.51720         0.252375     -0.482288     -0.131181
O      13.29243      1.93202     13.10024         0.067798     -0.046126      0.152017
O      13.40592     13.14921      0.52842        -0.228982      0.383944     -1.197251
O      13.13618     13.36541     13.23527         0.566779     -0.460408     -0.081211
O       2.04520      1.76956      4.57791        -0.336414      0.580585      0.545580
O       2.03190     13.19234      4.59787        -0.023586     -0.225388      0.386963
O      13.03876      1.96669      4.84380         0.779451     -0.055916     -1.100392
O      13.31510     13.23385      4.59192         0.113037     -0.097322      0.163998
O       1.74214      1.95188      8.94378         0.175642     -0.236605     -0.212754
O       1.86017     13.22709      9.01987         0.048965      0.452055     -0.461332
O      13.41292      1.81932      8.84482        -0.123146      0.034962     -0.526442
O      13.39219     13.31279      8.82268         0.099755     -0.132293     -0.085384
O       1.91974      5.54158      0.47603        -0.544956      0.292609     -1.484237
O       1.71031      5.59641     13.07612         0.406358     -0.134898      0.756317
O      13.23759      5.52423      0.45327         0.411317      0.494684      0.544771
O      13.24654      5.64993     13.24397        -0.023749      0.061243     -1.316214
O       1.93876      5.60068      4.61348         0.297702      0.063650     -1.066126
O      13.13368      5.57621      4.67553         0.503256      0.157669     -0.186673
O       1.88488      5.72167      8.96145        -0.093184      0.298008      0.098827
O      13.38994      5.96087      8.88213        -0.230398     -0.417690      0.359794
O       1.96407      9.44201      0.40131        -0.049626     -0.446809      0.024590
O       1.77488      9.52052     13.25195        -0.023545      0.086499     -1.618686
O      13.19162      9.30550      0.51905         0.100653      0.649701     -1.166787
O      13.22186      9.58062     13.19906        -0.000241     -0.296737      1.211043
O       2.08596      9.47686      4.67402        -0.589638     -0.193519     -0.918973
O      13.27065      9.33799      4.68777         0.148497      0.234901      0.336931
O       1.95930      9.47695      9.04817        -0.140501     -0.085585     -0.581244
O      13.35384      9.55101      8.85551        -0.194963     -0.453649     -0.156458
O       5.72539      1.86994      0.34178        -0.135567     -0.216414      1.025404
O       5.65721      1.71251     13.21197        -0.159653      0.259912     -1.449853
O       5.79313     13.13553      0.45583        -0.063230      0.315347     -0.615064
O       5.79580     13.25217     13.12317        -0.470191     -0.056698      0.780097
O       5.59772      1.88010      4.75230         0.353931      0.112002     -0.007081
O       5.68101     13.28136      4.81458         0.257344     -0.135768     -1.236318
O       5.57915      1.98407      9.01852         0.233969     -0.397621     -0.773490
O       5.66008     13.44280      8.94527         0.155166     -0.024697     -0.720858
O       5.68015      5.61189      0.32267        -0.017988     -0.087544     -0.806149
O       5.79660      5.60804     13.08215        -0.092613     -0.139037     -0.919664
O       5.72546      5.58653      4.68031        -0.094459      0.110018     -0.029222
O       5.70245      5.74904      9.07930        -0.215502     -0.270297     -0.245031
O       5.76279      9.35528      0.41378        -0.359462      0.314171      0.459262
O       5.71327      9.60772     13.16182         0.035800      0.098683     -1.377243
O       5.66523      9.39691      4.73880         0.241582     -0.043271     -0.153584
O       5.68066      9.56799      9.03449        -0.150712     -0.586374     -0.030489
O       9.54289      1.72899      0.47250        -0.053509      0.424594      0.291685
O       9.44233      1.69604     13.12588         0.201799      0.634703     -1.830646
O       9.37752     13.25453      0.43011         0.379843     -0.325516      0.579956
O       9.60588     13.29357     13.09168        -0.362423     -0.135939     -0.477045
O       9.46530      1.80700      4.82695         0.162481     -0.064519     -2.725907
O       9.44437     13.19493      4.74354         0.096067      0.472246     -0.071601
O       9.41458      2.01338      8.87552         0.109197     -0.370606      0.649787
O       9.59764     13.21362      8.80508        -0.251355      0.181940      0.035250
O       9.38872      5.62002      0.25887         0.202721     -0.267832      1.913240
O       9.36569      5.73652     13.23353         0.447030     -0.012110     -2.216869
O       9.41125      5.63783      4.77909         0.038251      0.231046     -0.227318
O       9.50462      5.52820      9.01369         0.067767      0.537449     -0.524726
O       9.52302      9.50733      0.59130        -0.332579      0.045608     -1.975938
O       9.53965      9.51136     13.09609        -0.154524      0.146132      0.975036
O       9.42026      9.46602      4.85330         0.065948     -0.413795     -0.906711
O       9.53489      9.52285      8.95603         0.100490      0.150528     -1.581889
O       3.79574      1.81231      2.49015         0.800946     -0.089050     -0.148255
O       3.67958      1.79738     15.28487         0.480919      0.097088      0.066580
O       3.85734     13.27086      2.49445         0.141392     -0.549093     -0.148977
O       3.80154     13.23154     15.24379        -1.103071      0.154408      0.458842
O      15.14027      1.72612      2.63562         0.906981     -0.015147     -0.091386
O      15.09652      1.92056     15.42357         0.254829     -0.331885     -0.036201
O       0.06507     13.30268      2.67322        -0.089017     -0.688612     -0.528271
O      15.17965     13.08368     15.34086        -0.042606      0.172439      0.089767
O       3.72185      1.87322      6.91187         0.789790      0.183113      0.006262
O       3.84810     13.38889      7.03414        -0.689489     -0.763224     -0.782525
O       0.01998      1.92383      6.68370         0.063451      0.117678      0.261581
O       0.05013     13.29347      6.69930         0.229905     -0.463694     -0.092053
O       3.64926      1.77551     11.07089         0.972569      0.002257      0.505524
O       3.79933     13.42389     11.13036        -0.722962      0.234179      0.137962
O      15.14404      1.97235     11.03126        -0.239334     -0.034494      0.614496
O      15.19881     13.17650     11.22794        -0.733250      0.367503     -0.211645
O       3.76860      5.66978      2.39912         0.140767     -0.523623      0.673212
O       3.72985      5.54599     15.05322        -0.111582      0.213080      0.499132
O      15.15887      5.46832      2.78930         0.547303      1.130724     -0.978441
O      15.10148      5.54395     15.34873         0.421888     -0.026721      0.039003
O       3.78760      5.78376      6.88115         0.190426     -0.290571     -0.039465
O       0.04030      5.64098      6.75086         0.248897      0.174382     -0.006247
O       3.81412      5.79119     11.18603        -0.542403     -0.678934     -0.103888
O      15.19735      5.73205     11.08081        -0.640890      0.213409     -0.251493
O       3.86773      9.40313      2.60208        -1.027300      0.047498     -0.413809
O       3.70644      9.25075     15.24156         0.999449      0.643897     -0.066063
O      15.17114      9.42717      2.60219         1.131734     -0.095898     -0.086831
O      15.08690      9.47930     15.43057         0.350399     -0.253201     -0.000714
O       3.79133      9.44619      6.90988         0.690515      0.013629      0.037423
O       0.10466      9.47499      6.79976        -0.992160     -0.132585     -0.129364
O       3.74780      9.48493     11.21083         1.230840      0.162369      0.037149
O      15.16255      9.51450     11.06538         0.704789      0.372799      0.368460
O       7.62574      1.75051      2.52966         0.099891     -0.067192      0.276514
O       7.58091      1.77000     15.22081        -0.375106      0.260298      0.235775
O       7.64551     13.14476      2.71513        -0.409435      0.628993     -0.288392
O       7.63816     13.22194     15.21912        -0.871345     -0.285544     -0.014030
O       7.58448      1.94172      6.87820        -1.017970      0.104134      0.170621
O       7.57592     13.25005      6.95428         0.336634      0.348699      0.023603
O       7.58676      1.99957     10.93084        -0.377151     -0.378892      0.268091
O       7.61705     13.20070     10.98601         0.403921      0.433496      0.127889
O       7.52157      5.69494      2.45647         1.222115     -0.153135      0.128874
O       7.53301      5.50339     15.22425         0.660935      0.070656      0.323895
O       7.55965      5.69587      6.92310         0.244884     -0.018376      0.037676
O       7.62073      5.67118     11.08628        -0.420015     -0.162206      0.249340
O       7.60185      9.40216      2.65931        -0.661080      0.034348     -0.281618
O       7.51467      9.54379     15.30587         0.702262     -0.058641     -0.238163
O       7.66382      9.49126      7.10973        -2.148314     -0.115503     -0.609735
O       7.62283      9.63210     11.09866        -1.082512     -0.207758     -0.020180
O      11.44002      1.84373      2.68134        -2.063882     -0.111238      0.066481
O      11.39060      1.79008     15.33765        -0.196178     -0.267976     -0.079225
O      11.40597     13.14252      2.57649        -0.256493     -0.183846     -0.093881
O      11.40497     13.25288     15.32890        -0.772541     -0.233478      0.662480
O      11.37835      1.88781      6.95360        -0.018392      0.011787      0.002830
O      11.40638     13.29932      6.66440         1.211457     -0.327422      0.425289
O      11.41133      1.81881     10.97952         0.068613      0.381707     -0.035463
O      11.44583     13.40815     10.93962        -0.054920      0.039131      0.065875
O      11.35349      5.56813      2.61018        -0.542008      0.118811     -0.339285
O      11.35404      5.63153     15.39162        -0.554396      0.522272     -0.410272
O      11.40522      5.69543      6.85934        -0.021226      0.051730      0.348034
O      11.39753      5.75670     11.12746         0.680359      0.303217     -0.179635
O      11.35182      9.36839      2.71254        -0.074503      0.688655     -0.035314
O      11.31317      9.38572     15.39595         0.133557      0.213446     -0.211326
O      11.38602      9.39891      6.88692         0.633309      0.528394     -0.026783
O      11.40465      9.41993     10.98702         0.573668     -0.181344      0.255504
O       1.90447      3.65973      2.52115        -0.131029      0.311409     -0.027032
O       1.81024      3.71155     15.44080         0.150516      0.178733     -0.189402
O       1.96977     15.04979      2.56174        -0.198664      0.698063     -0.312581
O       1.85466     15.13950     15.32659        -0.643006     -0.372420     -0.262127
O      13.32861      3.71740      2.57767        -0.175460     -0.509943      0.255630
O      13.10430      3.72221     15.41187         0.673270     -0.275405     -0.508703
O      13.23435     15.10314      2.68860         0.060112     -0.002053     -0.269049
O      13.35913     15.12528     15.35098         0.111644      0.592819      0.201892
O       1.90441      3.78078      6.85219         0.153727      0.208426     -0.092393
O       1.85749     15.14070      6.74912         0.061835      0.357205      0.054584
O      13.27440      3.81975      7.03983         0.337587      0.347439     -0.407318
O      13.34637     15.16312      6.78603        -0.157624     -0.017479     -0.304442
O       1.93187      3.82559     10.97584        -0.039944      0.222331      0.288042
O       1.68533     15.18741     11.20188         0.295780      1.058715      0.086609
O      13.31067      3.84308     10.92926        -0.305248      0.532707     -0.011749
O      13.40365      0.00160     11.05224         0.113418      0.385023     -0.030086
O       1.86239      7.53062      2.53727         0.024815      0.014895      0.147032
O       1.79154      7.45388     15.24353        -0.209460     -0.095168      0.329686
O      13.26270      7.52357      2.57799         0.403965     -0.680449      0.181957
O      13.26113      7.56056     15.48409        -0.173370     -0.314457     -0.734576
O       1.89882      7.53536      6.75331        -0.175755      0.453411      0.109727
O      13.33451      7.52262      6.74487         0.255769      1.011341      0.283151
O       1.91244      7.62573     11.24604        -0.397750     -0.138252     -0.428249
O      13.41502      7.71077     11.23589        -0.915307     -1.383745     -0.673458
O       1.99040     11.30969      2.54741        -0.253501     -0.344495     -0.116102
O       1.90697     11.22989     15.41197         0.243691      0.947619     -0.107289
O      13.35958     11.28029      2.53866        -0.139631      0.664517      0.315578
O      13.20445     11.34638     15.37723        -0.012503      0.148029      0.561345
O       1.97184     11.37052      6.77960         0.120538     -0.690435      0.172431
O      13.43321     11.34565      6.73574        -0.778066      0.068307      0.018021
O       1.90455     11.48164     11.13921         0.324476     -1.369689      0.388057
O      13.15134     11.43695     10.98166         0.468190      0.299208     -0.119989
O       5.81672      3.65462      2.59899        -0.664567      0.880547     -0.279201
O       5.59886      3.70683     15.27882         0.309016     -0.376968     -0.153908
O       5.79881     15.08140      2.71984        -0.309922      0.525369     -0.826983
O       5.60016     15.10258     15.34167         0.424720      0.259378      0.001162
O       5.58456      3.85762      6.92723         0.258819     -1.351300      0.141450
O       5.70451      0.06798      6.95235         0.251086     -0.864211     -0.048490
O       5.67486      3.66979     11.15798        -0.482576      1.779046      0.144062
O       5.69830     15.16620     11.20858         0.302591      1.742273     -0.000515
O       5.61122      7.51508      2.52975         0.537323      0.136898      0.107341
O       5.71306      7.50893     15.08985         0.024739      0.563673      0.337569
O       5.70226      7.59050      6.97105         0.204159      0.305666     -0.238729
O       5.65543      7.60269     11.21933         0.435729      0.885417     -0.482736
O       5.75241     11.32912      2.62306        -0.134732     -0.686175     -0.131994
O       5.50774     11.40230     15.34550         0.661296     -1.316355     -0.109616
O       5.64514     11.34178      6.96073         0.292476      0.006470     -0.448208
O       5.58479     11.55803     10.97142        -0.012579     -2.481205      0.509861
O       9.45338      3.69499      2.71307        -0.133521      0.493435     -0.667988
O       9.55576      3.72645     15.10061        -0.387688      0.045161      0.429850
O       9.57268     15.08971      2.51798        -0.085359      0.324546      0.629943
O       9.49467     15.10279     15.24701        -0.052875      0.641699      0.354156
O       9.52254      3.78160      6.87914         0.053332      0.229977     -0.393561
O       9.44037     15.12394      6.93649         0.004701      1.260056     -0.057449
O       9.55258      3.81062     11.15281        -0.087919     -0.485328      0.321162
O       9.41140      0.01080     11.05972         0.016805     -0.516943     -0.678913
O       9.50959      7.51592      2.51684        -0.257507     -0.690624      0.194196
O       9.38849      7.59676     15.33885        -0.053357      0.581583     -0.212823
O       9.50826      7.57360      7.01209        -0.223562     -0.206122     -0.026315
O       9.42508      7.63735     11.07926         0.000663     -1.151263     -0.113729
O       9.42422     11.33774      2.84147         0.506734     -0.544975     -1.027578
O       9.53912     11.35143     15.44522        -0.178346      0.102501     -0.691185
O       9.37796     11.41460      6.83682         0.856660     -0.866672      0.361807
O       9.57612     11.41975     11.05123        -0.031068      0.242448     -0.341936
