  # total energy = -7888.25859821 
CRSYTAL
PRIMVEC
    15.2000000000000000    0.0000000000000000    0.0000000000000000
     0.0000000000000000   15.2000000000000000    0.0000000000000000
     0.0000000000000000    0.0000000000000000    17.000000000000000
PRESSURE
7.53522 7.57488 0.434264 0.010965 0.008812 0.006662
PRIMCOORD
320 1
Pb       3.77208      3.78301      4.22621        -0.075754     -0.055239      0.143824
Pb       3.78585      3.78802     16.97384         0.260033     -0.156484      0.118285
Pb       3.77273     15.19249      4.22077         0.059081     -0.056124      0.262798
Pb       3.78283     15.18198     16.96825         0.067641     -0.068614      0.152384
Pb      15.18625      3.78473      4.21976        -0.083812     -0.112165      0.005677
Pb      15.19290      3.79232     16.96853        -0.079858     -0.189201      0.396142
Pb      15.17941     15.19121      4.23572         0.048623      0.035918      0.054922
Pb      15.18594     15.17817     16.96969         0.042644      0.063051      0.389298
Pb       3.78878      3.78723      8.46391        -0.018542     -0.074448      0.139784
Pb       3.78493     15.17532      8.48586        -0.149700     -0.086660     -0.065722
Pb      15.19168      3.77181      8.48215        -0.189798     -0.178173      0.037537
Pb      15.16780     15.18040      8.47058         0.034675      0.056155      0.318934
Pb       3.78545      3.76783     12.70875         0.101028      0.156060      0.165556
Pb       3.78391     15.18997     12.72740        -0.038301     -0.163627      0.289899
Pb      15.17724      3.78105     12.71694         0.064606      0.183633      0.085297
Pb      15.18582     15.18590     12.72815        -0.102085     -0.354360      0.107950
Pb       3.77610      7.58328      4.22762        -0.185142      0.067298      0.233907
Pb       3.77643      7.58604     16.97116         0.141232     -0.199730      0.066372
Pb      15.17570      7.59030      4.22877         0.127833      0.152485      0.112375
Pb      15.17382      7.57458     16.96811        -0.090863      0.066929      0.206663
Pb       3.78301      7.58059      8.46511         0.103929      0.035532      0.259152
Pb      15.17439      7.57774      8.47363        -0.001236      0.116654      0.137593
Pb       3.77243      7.57716     12.71990         0.062229     -0.102576     -0.036357
Pb      15.18439      7.57644     12.72819         0.043081      0.092176      0.153861
Pb       3.76679     11.38049      4.22731        -0.059770      0.142969      0.090206
Pb       3.79809     11.38052     16.98365        -0.153582      0.245662      0.000744
Pb      15.18559     11.38510      4.21932        -0.056300     -0.288967     -0.139357
Pb      15.18789     11.37550     16.96152         0.097359      0.081006      0.391134
Pb       3.77432     11.38028      8.48031        -0.255713      0.097506     -0.008447
Pb      15.17997     11.37813      8.48305         0.042819     -0.028929      0.005675
Pb       3.77895     11.37073     12.71312        -0.202510      0.051469      0.438554
Pb      15.17724     11.35922     12.73737         0.050634      0.092236      0.008311
Pb       7.57816      3.78447      4.22314         0.010470     -0.158331      0.161385
Pb       7.58621      3.78159     16.98287        -0.205257     -0.101174      0.045205
Pb       7.57882     15.17453      4.21900         0.028036      0.131908      0.157044
Pb       7.58947     15.17707     16.97070        -0.174344      0.129015      0.261446
Pb       7.58857      3.76817      8.47322        -0.190605     -0.078370      0.111083
Pb       7.58443     15.18600      8.47606         0.024466      0.165209      0.315765
Pb       7.58869      3.77548     12.72358        -0.107212     -0.064601      0.040589
Pb       7.57995     15.17598     12.72630         0.097725      0.108678      0.041433
Pb       7.58481      7.57297      4.21273         0.255160      0.009741      0.257985
Pb       7.58848      7.58899     16.97818        -0.017320      0.074758      0.288088
Pb       7.58226      7.58452      8.46537        -0.126584     -0.038901      0.056160
Pb       7.57934      7.58912     12.71437        -0.214851     -0.295548      0.138163
Pb       7.57434     11.37727      4.22628         0.137225      0.176320      0.193776
Pb       7.57598     11.38563     16.97075         0.101578     -0.095840      0.109309
Pb       7.58270     11.38619      8.48498         0.384233     -0.058314     -0.043961
Pb       7.58713     11.38192     12.71585         0.055465      0.018636      0.354542
Pb      11.37684      3.79597      4.21272         0.120435     -0.134464      0.243126
Pb      11.37627      3.77072     16.97091        -0.090908     -0.013351      0.145093
Pb      11.38861     15.17878      4.21876        -0.228548      0.083421      0.046532
Pb      11.38381     15.18410     16.97159        -0.143566      0.103073      0.239082
Pb      11.38298      3.78230      8.47293         0.240354     -0.222962      0.059676
Pb      11.37955     15.18311      8.47363         0.115177      0.057463      0.140985
Pb      11.37479      3.76759     12.72109        -0.051906     -0.038416      0.100781
Pb      11.38223     15.18540     12.71493        -0.079023     -0.207123     -0.005731
Pb      11.38571      7.57356      4.21443        -0.205069      0.066274      0.273527
Pb      11.38130      7.58384     16.97114         0.039683      0.062165      0.052001
Pb      11.37928      7.57864      8.48577        -0.115374      0.106068      0.053322
Pb      11.38172      7.58764     12.73276         0.021876      0.049458      0.222949
Pb      11.37963     11.37654      4.21863         0.012417     -0.049345      0.248227
Pb      11.38799     11.38344     16.95767        -0.159422     -0.216931      0.229608
Pb      11.38407     11.37749      8.47772        -0.259321      0.039972     -0.178708
Pb      11.37333     11.36550     12.70533         0.008684      0.134578      0.397174
Ti       1.88805      1.88038      2.27426        -0.268944      0.168299     -0.498753
Ti       1.87531      1.89568     15.02276         0.362977     -0.558030      0.041167
Ti       1.86172     13.29576      2.28328         0.150030     -0.045372     -1.031502
Ti       1.85619     13.28608     15.02050         0.880070     -0.364046     -1.051571
Ti      13.27166      1.86863      2.27073         0.198826      0.421197     -0.989248
Ti      13.27825      1.86772     15.00869         0.027906      0.199410     -0.370313
Ti      13.25534     13.28484      2.26231         0.579561     -0.407156     -0.432876
Ti      13.25894     13.29671     15.00539         0.251489     -0.229531     -1.298500
Ti       1.86457      1.88081      6.52669         0.364570     -0.325401     -0.726003
Ti       1.86511     13.26501      6.50141         0.398869      0.519663     -0.070641
Ti      13.29273      1.86377      6.49673        -0.084233      0.546551      0.054038
Ti      13.29082     13.27729      6.50284        -0.480732      0.003209     -0.768636
Ti       1.87170      1.87126     10.78135        -0.078196      0.075462     -0.826520
Ti       1.88440     13.28075     10.75600        -0.529451     -0.085165     -0.528375
Ti      13.28833      1.88633     10.80880        -0.275968     -0.281997     -1.891101
Ti      13.25953     13.26905     10.74803         0.174561      0.584457     -0.715085
Ti       1.89084      5.69857      2.26073        -0.354998     -0.322267     -0.922818
Ti       1.88417      5.65368     14.99654         0.247928      0.415204     -0.535963
Ti      13.27964      5.68663      2.25448         0.335093     -0.362430     -0.271966
Ti      13.29128      5.64690     15.01421        -0.450289      0.500827     -0.796216
Ti       1.88509      5.70185      6.51819         0.046185     -0.540854     -0.774821
Ti      13.30030      5.68198      6.52066        -0.347135     -0.167057     -0.938078
Ti       1.87684      5.67343     10.75040         0.106260      0.315692     -0.576131
Ti      13.25697      5.69987     10.76469         0.310074     -0.249882     -1.114979
Ti       1.91757      9.47875      2.25149        -1.147005      0.434135      0.727149
Ti       1.88277      9.44870     15.01521        -0.114432      0.624352     -0.798820
Ti      13.26420      9.47146      2.26752         0.684132      0.410582     -0.840542
Ti      13.29058      9.49851     15.02877        -0.213269     -0.495703     -1.269069
Ti       1.86865      9.47173      6.52284         0.134913      0.379508     -1.272329
Ti      13.26851      9.47214      6.52060        -0.092705      0.475143     -0.270097
Ti       1.88285      9.48545     10.76281        -0.230879     -0.178656     -0.547080
Ti      13.25165      9.49010     10.76235         0.596866     -0.142601     -0.756689
Ti       5.67280      1.88079      2.29326         0.344871      0.078177     -1.489634
Ti       5.68665      1.86041     14.99496         0.105920      0.464839     -0.116361
Ti       5.66988     13.29265      2.27701        -0.161681      0.149256     -0.257566
Ti       5.69672     13.26688     15.00888        -0.503688     -0.127878     -0.054501
Ti       5.66973      1.85952      6.51639         0.208516      0.346419     -0.564005
Ti       5.69018     13.27639      6.53409        -0.382289      0.246117     -1.295646
Ti       5.65067      1.87365     10.76854         1.000630      0.193102     -0.731543
Ti       5.66410     13.26771     10.77720         0.430900      0.618545     -0.955532
Ti       5.68236      5.69077      2.24972         0.000646     -0.483449     -0.531980
Ti       5.69050      5.69347     15.00069        -0.510722     -0.424702     -0.321034
Ti       5.66400      5.66415      6.48177         0.280615      0.153910      0.275771
Ti       5.66545      5.65959     10.74882         0.043261      0.390491      0.039007
Ti       5.71211      9.48539      2.26066        -0.331410      0.057682     -0.839570
Ti       5.66236      9.46370     15.03137         0.506446      0.569971     -0.509934
Ti       5.67141      9.49626      6.50194         0.136876     -0.583484     -0.359576
Ti       5.67766      9.49855     10.77055        -0.274258     -1.045382     -0.676562
Ti       9.47010      1.88337      2.26184        -0.038553     -0.224389     -0.575049
Ti       9.47027      1.87955     15.01798        -0.008105      0.085407     -0.420722
Ti       9.48210     13.27802      2.26530        -0.426483      0.050568     -0.732556
Ti       9.48388     13.26968     15.01797        -0.398499      0.037857     -1.002380
Ti       9.48916      1.89629      6.51849        -0.110424     -0.354384     -1.161745
Ti       9.44771     13.30893      6.50319         0.821819     -0.628472     -0.553342
Ti       9.47721      1.87057     10.76677        -0.101652     -0.105772     -0.420053
Ti       9.46421     13.27550     10.77814         0.282179      0.152830     -0.923213
Ti       9.48689      5.66359      2.25942        -0.249902      0.372685     -0.900267
Ti       9.44624      5.69849     15.00985         0.459873     -0.257770     -0.379439
Ti       9.49411      5.67687      6.53206        -0.519625      0.335625     -1.490220
Ti       9.47299      5.67764     10.75782        -0.311445     -0.308867     -0.268971
Ti       9.48096      9.48566      2.25796         0.396297     -0.110625     -0.992287
Ti       9.47026      9.45845     15.00787         0.018828      0.445602     -0.156701
Ti       9.48082      9.45779      6.50308        -0.043203      0.872976     -0.621779
Ti       9.45421      9.46435     10.77073         0.596872      0.238057     -1.239037
O       1.89571      1.87460      0.45860        -0.059595     -0.041904      0.433601
O       1.88209      1.90027     13.24162         0.023747     -0.189257     -0.343045
O       1.86782     13.30044      0.45879         0.035811     -0.002900      0.417382
O       1.88235     13.29032     13.16648        -0.025103     -0.047838      0.975116
O      13.29663      1.88734      0.45213        -0.066089     -0.097514      0.323750
O      13.29017      1.89788     13.19407        -0.059007     -0.077263      0.494300
O      13.28411     13.26603      0.46829        -0.092470      0.013642     -0.061710
O      13.26612     13.29443     13.17606         0.057512      0.031342      0.911957
O       1.86624      1.86894      4.71247         0.116890      0.044198      0.240057
O       1.84454     13.27389      4.71752         0.142634      0.074838     -0.084118
O      13.32942      1.91785      4.71375        -0.306037     -0.286828     -0.057134
O      13.25257     13.27552      4.68072         0.055837      0.098782      0.638866
O       1.84186      1.86056      8.98502         0.180941      0.191223      0.382528
O       1.89081     13.29380      8.94791        -0.024007     -0.207967      0.448760
O      13.26728      1.87916      8.95069         0.163233      0.163274      1.000448
O      13.26254     13.34529      8.92890         0.043287     -0.394957      0.696126
O       1.91022      5.71810      0.42613        -0.170247     -0.129975      0.733823
O       1.84612      5.70521     13.19840         0.193241     -0.198652      0.344832
O      13.32904      5.66544      0.46165        -0.111832      0.055853      0.056666
O      13.25586      5.64368     13.19470         0.101662      0.165030      0.571770
O       1.89153      5.67911      4.70306         0.047734      0.039441      0.636091
O      13.26751      5.69122      4.69323        -0.069973      0.004553      0.688479
O       1.90162      5.66811      8.92901        -0.175056      0.096692      0.462004
O      13.28607      5.69487      8.91131         0.030773      0.062136      1.086720
O       1.87823      9.53152      0.49198         0.009826     -0.338128     -0.664651
O       1.82479      9.52792     13.20398         0.336239     -0.193955      0.517839
O      13.30110      9.43309      0.45259        -0.093198      0.296795      0.178597
O      13.25869      9.47037     13.17590         0.152814      0.072574      0.893050
O       1.83072      9.44931      4.68914         0.319957      0.151042      0.687268
O      13.27054      9.50543      4.74181        -0.067296     -0.176501     -0.103526
O       1.89351      9.51793      8.95789        -0.090549     -0.140887      0.073578
O      13.26535      9.48272      8.92811         0.125734     -0.039599      0.802110
O       5.68787      1.90976      0.45956         0.051320     -0.048143      0.555485
O       5.68633      1.90034     13.20215        -0.040660     -0.138037     -0.079642
O       5.68177     13.29604      0.49860        -0.079361     -0.116270     -0.192690
O       5.66525     13.26765     13.23520         0.073129      0.032002     -0.740818
O       5.70324      1.85672      4.70841        -0.190498      0.073315      0.369870
O       5.67274     13.27579      4.70014         0.034319      0.004064      0.794093
O       5.71205      1.83578      8.96435        -0.180602      0.278139      0.251024
O       5.69048     13.29285      8.96754         0.000811     -0.118557      0.384238
O       5.70402      5.66625      0.46098        -0.169309      0.073068      0.244395
O       5.68787      5.68643     13.22510        -0.088646      0.022819     -0.216724
O       5.65746      5.65232      4.71929         0.025780      0.123891     -0.661960
O       5.65292      5.69128      8.98439         0.033935     -0.040576     -0.577382
O       5.69231      9.46623      0.44665        -0.029147      0.020291      0.684709
O       5.68095      9.49361     13.23064        -0.024125     -0.024853     -0.118955
O       5.70727      9.45954      4.70620        -0.121762      0.107408      0.137673
O       5.67356      9.49646      8.96366        -0.049468     -0.044388      0.512486
O       9.48645      1.85220      0.44102        -0.091059      0.185063      0.509374
O       9.50605      1.87496     13.21074        -0.034979     -0.089588      0.297461
O       9.47498     13.25851      0.44170         0.033772      0.093947      0.598669
O       9.49266     13.30408     13.18101        -0.187015     -0.062318      0.948502
O       9.48944      1.86604      4.69168         0.064117      0.063512      0.650873
O       9.45781     13.29130      4.68444         0.137805      0.028647      0.484812
O       9.47360      1.85510      8.97214         0.014881      0.227806     -0.096790
O       9.43409     13.29306      8.96462         0.074540     -0.153243      0.338028
O       9.47714      5.67030      0.43032        -0.005087     -0.009950      0.693761
O       9.47075      5.71949     13.20766        -0.016094     -0.044589      0.296628
O       9.49851      5.72649      4.67707        -0.037555     -0.198043      0.993201
O       9.48749      5.68847      8.96596        -0.175665     -0.032606     -0.092303
O       9.51617      9.46872      0.43121        -0.096086      0.066123      0.727451
O       9.48092      9.49000     13.20558        -0.049498     -0.229565      0.038393
O       9.48665      9.53225      4.69562        -0.123603     -0.259830      0.024214
O       9.47137      9.46666      8.93736        -0.044356      0.034310      1.043325
O       3.80978      1.88150      2.59411        -0.760295     -0.047442      0.314354
O       3.81226      1.92613     15.35310        -0.589432     -0.394091      0.043639
O       3.77347     13.29082      2.63470         0.064266      0.044635      0.138739
O       3.78151     13.26050     15.35108        -0.226564      0.079946      0.167124
O      15.14823      1.90601      2.64317         0.809620     -0.268843     -0.084425
O       0.00008      1.83754     15.37599        -0.489344      0.202097     -0.093798
O      15.19181     13.25932      2.60567        -0.571608      0.203029      0.138941
O      15.17785     13.29358     15.35473        -0.333244     -0.181078     -0.032457
O       3.78563      1.87354      6.87760         0.102457     -0.060497      0.113921
O       3.79137     13.30360      6.84684        -0.231105      0.034911      0.172159
O       0.01026      1.84925      6.85938        -0.703793      0.465159      0.138176
O      15.16302     13.29329      6.87127         0.093587     -0.221302      0.013466
O       3.79001      1.85668     11.10958        -0.566579      0.203460      0.176403
O       3.80951     13.31353     11.08013        -0.508527     -0.153852      0.270861
O      15.16356      1.86933     11.11063         0.666283      0.120915      0.302375
O      15.17267     13.29293     11.09518        -0.032279     -0.209666      0.027156
O       3.74015      5.63192      2.62027         0.845667      0.350379      0.015777
O       3.79662      5.68915     15.36044        -0.452316     -0.067640      0.051871
O      15.19289      5.64384      2.62342        -0.231214      0.158704     -0.088587
O      15.17578      5.67620     15.33525         0.181247     -0.028250      0.145011
O       3.76943      5.69333      6.86186         0.018079     -0.081203      0.083523
O      15.17680      5.63242      6.84154         0.183959      0.522354      0.139729
O       3.76753      5.65665     11.12097        -0.157442      0.094159      0.159703
O      15.19114      5.70127     11.12341        -0.371154     -0.126798     -0.134504
O       3.74877      9.51768      2.60355         0.977935     -0.319028      0.140105
O       3.78943      9.47805     15.38748        -0.319776      0.020369     -0.000704
O      15.16932      9.45993      2.64017         0.159760      0.206403     -0.032849
O      15.19875      9.50230     15.34196        -0.235817     -0.029567      0.174650
O       3.73152      9.49632      6.84866         1.262216     -0.128091      0.138706
O       0.02876      9.50009      6.83324        -1.317188     -0.167153      0.452039
O       3.75724      9.45607     11.13107         0.797859      0.260141      0.082300
O       0.01721      9.44590     11.10408        -1.065794      0.295729      0.012052
O       7.56641      1.86307      2.65252         0.563304      0.259578     -0.081353
O       7.59274      1.88708     15.34261        -0.025452     -0.081618      0.105463
O       7.54085     13.30879      2.63028         0.856993     -0.233590     -0.023036
O       7.55726     13.26019     15.36673         0.862100      0.072134      0.069967
O       7.58683      1.89735      6.86188        -0.062258      0.003543      0.142563
O       7.58193     13.28552      6.85140        -0.103132     -0.121434      0.116582
O       7.58907      1.89954     11.09908        -0.154515     -0.041260      0.280608
O       7.57444     13.28669     11.13441        -0.249555     -0.144323      0.166357
O       7.60403      5.65884      2.59002        -0.496974      0.179870      0.170258
O       7.52609      5.69401     15.34685         1.396022      0.057954      0.193791
O       7.56428      5.68571      6.85037         0.416445     -0.014906      0.168340
O       7.56057      5.65295     11.13077         0.544686      0.168352     -0.024159
O       7.61145      9.48774      2.58824        -0.733739     -0.190390      0.133094
O       7.58272      9.48531     15.38219         0.029859     -0.123538     -0.015839
O       7.59532      9.46980      6.87852        -0.964111      0.189952      0.020976
O       7.60162      9.44476     11.09798        -0.733901      0.275831      0.127212
O      11.37480      1.88388      2.57693        -0.035426     -0.125043      0.293980
O      11.37540      1.89337     15.39029         0.247138     -0.181476     -0.119542
O      11.38402     13.28353      2.57691        -0.491006      0.032624      0.187228
O      11.37270     13.26414     15.33708        -0.153033      0.183126      0.170608
O      11.37454      1.91719      6.88057         0.312390     -0.244351     -0.100825
O      11.38727     13.30267      6.89557        -0.122232     -0.022911     -0.214669
O      11.40431      1.91110     11.09333        -0.296446     -0.205627      0.333489
O      11.35764     13.29170     11.12916         0.399645     -0.021322     -0.090717
O      11.36398      5.65502      2.60177         0.571044      0.186156     -0.046542
O      11.39216      5.67718     15.33417        -0.044874      0.137315      0.145445
O      11.35179      5.71150      6.87207         0.514989     -0.156446      0.060027
O      11.35784      5.69134     11.06650         0.510914     -0.027802      0.246343
O      11.38011      9.50297      2.60287        -0.143976     -0.187570      0.160098
O      11.37208      9.44422     15.35040         0.195222      0.152174      0.064049
O      11.33300      9.49626      6.85529         1.026141      0.011126      0.167664
O      11.38046      9.50760     11.11168        -0.097365     -0.439411     -0.024124
O       1.90883      3.75697      2.58330        -0.188299      0.325491      0.170879
O       1.85729      3.76550     15.33633         0.101890      0.341638      0.145928
O       1.86144     15.19863      2.64824         0.083505      0.006210      0.023591
O       1.88714     15.16086     15.38902         0.111157      0.329294     -0.146133
O      13.30006      3.74831      2.61154        -0.286959      0.914540      0.048914
O      13.26589      3.74973     15.38360         0.277563      0.368461     -0.118051
O      13.28515     15.17218      2.57726        -0.056482     -0.026606      0.301983
O      13.27772     15.17353     15.35913        -0.132948      0.171136     -0.001374
O       1.91378      3.75369      6.85924        -0.128367      0.730691      0.170924
O       1.84902     15.18694      6.85861         0.281373     -0.335416      0.115077
O      13.28196      3.79218      6.84288        -0.054914      0.010348      0.162369
O      13.31805      0.01331      6.85962        -0.316284     -0.546330     -0.194864
O       1.89190      3.78414     11.10887        -0.155391     -0.272627      0.106140
O       1.86325     15.17513     11.07285         0.162993      0.181108      0.417181
O      13.31015      3.79199     11.12775        -0.100393      0.333565     -0.034845
O      13.27875     15.17441     11.10917        -0.045969      0.042235      0.201252
O       1.85576      7.58231      2.64775         0.246956     -0.141980     -0.229324
O       1.92166      7.56890     15.34222        -0.263786      0.078445      0.127567
O      13.29918      7.59481      2.59005        -0.237821     -0.763353      0.184114
O      13.33049      7.62498     15.38252        -0.170600     -0.996646     -0.114799
O       1.89669      7.59644      6.84554        -0.222836     -0.666704      0.236804
O      13.20773      7.61298      6.85445         0.571950     -0.659978      0.130365
O       1.88468      7.58321     11.10689         0.087800     -0.295933      0.043384
O      13.30170      7.58696     11.11302        -0.244637     -0.133035     -0.037137
O       1.88058     11.42972      2.59860         0.005811     -0.847888      0.228699
O       1.86864     11.35704     15.38930         0.109844      0.416569     -0.034742
O      13.26002     11.35022      2.61533         0.109727      0.610512      0.031979
O      13.21633     11.38993     15.33524         0.419319      0.019441      0.162171
O       1.89953     11.39491      6.82679        -0.136610     -0.034438      0.334028
O      13.27303     11.36880      6.85226         0.062971      0.413341      0.218133
O       1.87520     11.37314     11.09550         0.151618      0.428441      0.123973
O      13.24032     11.37525     11.10773         0.345714      0.007193     -0.119603
O       5.69898      3.79384      2.62075        -0.082531      0.123720      0.174418
O       5.69770      3.77042     15.34857         0.021287      0.174496      0.099984
O       5.69536      0.00596      2.56309        -0.193882     -0.487292      0.373499
O       5.71775     15.15001     15.35346        -0.236036      0.652687      0.077592
O       5.69202      3.78749      6.85751        -0.169782     -0.298110      0.196281
O       5.68423     15.18092      6.88310         0.081588     -0.093156     -0.016808
O       5.69355      3.80104     11.08617        -0.235581     -0.745450      0.296504
O       5.69170      0.02013     11.10447         0.029757     -0.938710      0.324776
O       5.65176      7.56719      2.59741         0.055421      0.223800      0.176312
O       5.71686      7.60562     15.37393        -0.299070     -0.385452      0.093647
O       5.68908      7.57037      6.83243        -0.223797      0.437182      0.217356
O       5.64366      7.55600     11.11545         0.201429      0.776195      0.142430
O       5.69335     11.34179      2.58971        -0.112068      0.411544      0.203263
O       5.68793     11.38490     15.36756        -0.048579     -0.334083      0.215041
O       5.61862     11.38318      6.85079         0.415750     -0.161035      0.135682
O       5.68613     11.37620     11.10198        -0.010143     -0.115799      0.131519
O       9.50435      3.76458      2.61045        -0.213919      0.219546      0.004814
O       9.47561      3.79564     15.33703        -0.020088      0.029435      0.086284
O       9.48554     15.19171      2.60940         0.019457     -0.400366      0.015382
O       9.46356     15.17966     15.38376         0.127013     -0.256398     -0.113093
O       9.50417      3.77727      6.81168        -0.192358      0.376907      0.362926
O       9.48718     15.19912      6.84151        -0.074507     -0.321894      0.089429
O       9.50918      3.74285     11.10183        -0.114928      0.933727      0.184180
O       9.47165     15.16526     11.05235         0.081571      0.327696      0.516464
O       9.47754      7.59886      2.61057         0.072404     -0.402696     -0.001256
O       9.49682      7.58581     15.41638        -0.238268     -0.395393     -0.258995
O       9.48847      7.60742      6.81730        -0.169831     -0.887949      0.337026
O       9.46344      7.57063     11.09995         0.157845      0.112161      0.147997
O       9.47046     11.38305      2.60056        -0.032836      0.339149      0.065026
O       9.43768     11.36329     15.34910         0.323054      0.347012      0.030582
O       9.47878     11.37096      6.86118        -0.123441      0.759388      0.160774
O       9.51536     11.37668     11.11310        -0.403222     -0.285700      0.034171
