  # total energy = -7881.66724408 
CRSYTAL
PRIMVEC
    15.3600000000000000    0.0000000000000000    0.0000000000000000
     0.0000000000000000   15.3600000000000000    0.0000000000000000
     0.0000000000000000    0.0000000000000000    17.440000000000000
PRESSURE
1.75979 1.72104 3.90809 -0.205394 -0.342217 -0.079554
PRIMCOORD
320 1
Pb       3.83706      3.86067      4.23974         0.074541     -0.479876      0.357336
Pb       3.76768      3.90124     17.36023        -0.225230     -0.114117     -0.303693
Pb       3.88849     15.35631      4.23045        -0.705884      0.149374      0.300063
Pb       3.97821      0.01832      0.02450        -0.373964     -0.360860     -0.073023
Pb      15.25837      3.93692      4.30196        -0.071504     -0.790594     -0.391449
Pb      15.20653      3.71723     17.36294         0.112540      0.817218     -0.119058
Pb      15.25460     15.33549      4.36264         0.709601     -0.027965     -0.394446
Pb       0.14933      0.02784     17.39277        -0.815587      0.027999      0.358059
Pb       3.97913      3.89028      8.57540        -0.769895     -0.585727      0.378532
Pb       3.78648     15.26902      8.72630        -0.085465      0.065414     -0.216653
Pb       0.16205      3.70524      8.66827        -0.369529     -0.037784      0.457956
Pb       0.17153     15.29469      8.57874        -0.831076      0.073323      1.123317
Pb       3.90398      3.94600     13.07844        -0.647128     -0.087580      0.550830
Pb       4.02704      0.00071     13.22565        -0.746347      0.087309     -0.199719
Pb      15.25188      3.89362     12.93427         0.167033     -0.598643      0.749682
Pb      15.31167      0.01965     13.00602         0.459150      0.069050      0.358526
Pb       3.77832      7.65800      4.32499         0.338326     -0.452453     -0.128698
Pb       3.86784      7.78251     17.43415         0.085599     -0.569603      0.060334
Pb      15.18347      7.45177      4.29922         0.249301      1.179256      0.120555
Pb       0.21526      7.64073     17.42227        -1.379518     -0.287235     -0.085574
Pb       3.77944      7.59601      8.64484         0.649289      0.200009      0.241964
Pb      15.29597      7.71223      8.63474         0.246644      0.109549      0.441768
Pb       3.83887      7.82644     13.09215        -0.310042     -0.921904     -0.348173
Pb      15.29743      7.74866     12.91829         0.619681     -0.394151      0.123927
Pb       3.87000     11.40467      4.37074         0.026135      0.480336     -0.075994
Pb       3.69528     11.44866      0.00895         0.466866      0.556183     -0.231551
Pb      15.33176     11.39435      4.30419         0.070149     -0.007030      0.423882
Pb       0.09032     11.38547      0.10022        -0.265766      0.360135     -1.022193
Pb       3.74653     11.48033      8.66430         0.397767      0.166261      0.019264
Pb       0.10377     11.63933      8.60089        -0.333093     -0.707943      0.386750
Pb       3.74012     11.58838     13.00725        -0.446496     -0.369082      0.247276
Pb      15.11578     11.43828     12.97304         1.144829     -0.081260      0.411217
Pb       7.56951      3.95664      4.23853         0.461379     -0.467937      0.596629
Pb       7.69971      3.82482     17.36996        -0.099109     -0.022368     -0.302125
Pb       7.55310     15.32776      4.21660         0.609999      0.189621      0.722806
Pb       7.82285     15.25282      0.01369        -0.444601      0.405979     -0.187858
Pb       7.70736      3.79007      8.65923         0.056278      0.101778      0.164857
Pb       7.69986      0.08041      8.68805        -0.013142     -0.587990     -0.188822
Pb       7.50278      3.66139     13.01555         0.460601      0.512253      0.148858
Pb       7.72680     15.07041     13.13361        -0.953933      1.058392      0.316075
Pb       7.61248      7.79347      4.36767         0.078451     -0.560855     -0.193535
Pb       7.75994      7.51365     17.36203        -0.496214      0.579561      0.374343
Pb       7.65504      7.59204      8.71429        -0.189762      0.244184     -0.012340
Pb       7.76583      7.63066     13.08144        -0.646794      0.363581     -0.346094
Pb       7.65735     11.49712      4.27022         0.239289      0.238310      0.219246
Pb       7.68574     11.44589     17.31865        -0.029372      0.301410      0.624191
Pb       7.76271     11.45130      8.79892        -0.768629      0.162250     -0.369499
Pb       7.57802     11.53510     13.06866        -0.048291     -1.048336      0.142511
Pb      11.58941      3.92027      4.36474        -0.794773     -0.218940     -0.088459
Pb      11.28591      3.78115     17.34034         0.803993      0.380334     -0.548515
Pb      11.51504      0.14056      4.31581        -0.668229     -0.313899      0.402589
Pb      11.68843      0.05484     17.34016        -0.502839      0.064155     -0.421804
Pb      11.69200      3.69511      8.67744        -0.967427     -0.011781      0.281617
Pb      11.51666     15.34984      8.64798        -0.307455     -0.149275     -0.015475
Pb      11.41433      3.91227     12.87384         0.173148     -0.693254      1.034999
Pb      11.42269     15.30201     13.10885         0.476371      0.484036     -0.353918
Pb      11.53486      7.66879      4.39233        -0.092708      0.328881      0.033448
Pb      11.42669      7.67719     17.32455         0.577617     -0.247063      0.032312
Pb      11.47399      7.59245      8.66292        -0.136112      0.481055     -0.007381
Pb      11.62123      7.68548     13.00095        -0.085132      0.400377     -0.164619
Pb      11.39390     11.56679      4.36244         0.131096     -0.362240      0.091482
Pb      11.63464     11.57175     17.40123        -0.537768     -0.381111      0.295100
Pb      11.35131     11.52827      8.75537         0.809296     -0.057492     -0.675695
Pb      11.40389     11.58827     13.05343         0.369047     -1.033222      0.051132
Ti       1.87395      1.92734      2.29704        -0.132219     -0.900953     -0.154412
Ti       1.90199      1.99916     15.36574        -0.425234     -0.068728      2.815585
Ti       1.78719     13.38462      2.37599         0.597248      0.471705      2.425343
Ti       1.89076     13.54891     15.45438         0.252278     -1.121604     -0.788486
Ti      13.40879      1.91412      2.32957         0.227591      0.588087     -0.165710
Ti      13.42666      1.97352     15.24030        -0.790866      0.207954     -0.579506
Ti      13.35361     13.48471      2.39612         0.385070     -0.874590      1.471293
Ti      13.47061     13.41183     15.36892         0.059985     -0.366316      1.486866
Ti       1.88356      1.86433      6.55685         0.840031      0.036700      1.786633
Ti       1.87762     13.34543      6.53813         0.666178      0.324548     -0.457867
Ti      13.46042      1.81962      6.70226        -0.604322      0.116549      0.101584
Ti      13.36790     13.37219      6.62740        -0.298335      0.186528      2.655365
Ti       1.94096      1.94659     11.09236        -1.075264     -0.960986      0.589609
Ti       1.85697     13.44631     11.09815         0.344812     -0.484240      0.231268
Ti      13.33443      1.77368     11.05307         1.005143      0.555282      2.188512
Ti      13.39780     13.40183     11.07623         0.593593     -0.321091      0.335265
Ti       1.87254      5.69573      2.29479        -0.195414      0.025032      0.351863
Ti       1.90724      5.82421     15.39393        -0.283550     -1.395867     -0.451663
Ti      13.32013      5.75958      2.23934        -0.469818      0.078539     -1.529557
Ti      13.41012      5.77092     15.34381         0.077656      0.074647      1.624979
Ti       1.79516      5.71621      6.60908         1.353847     -0.080182      1.065560
Ti      13.43852      5.69320      6.80002        -0.712374     -0.009988      0.048088
Ti       1.93752      5.69144     10.99331         0.053427      0.967426      2.656205
Ti      13.44836      5.67109     10.94764         0.438660      0.414685      0.722289
Ti       1.93075      9.53051      2.44160        -0.038319     -0.081618      0.559448
Ti       1.92722      9.58890     15.32729        -0.788973      0.279391     -0.690916
Ti      13.39955      9.63599      2.29595        -0.106820     -0.345352      2.541775
Ti      13.42065      9.51153     15.41736         0.247174      0.463764      0.524918
Ti       1.98473      9.44425      6.66068        -1.045980      1.494839      0.428256
Ti      13.43546      9.57166      6.74575        -0.508008      0.194819      1.456288
Ti       1.97473      9.55764     10.98289        -0.777510      0.379467      2.218716
Ti      13.46146      9.59376     10.89507        -1.017326     -0.131185      1.895350
Ti       5.76370      1.92365      2.25239        -0.432262     -0.066304      0.367668
Ti       5.71243      1.93009     15.53510         0.924660     -0.777017     -1.740152
Ti       5.62508     13.40461      2.34876         0.994783     -0.681573     -1.127464
Ti       5.73792     13.37379     15.47188        -0.184014      0.349629      3.758507
Ti       5.65271      1.84475      6.68101         0.469235     -0.067867     -0.897931
Ti       5.69623     13.39199      6.66752         0.212801     -0.417932      2.144498
Ti       5.66121      1.82539     11.09740        -0.214612      0.486566      0.482186
Ti       5.67393     13.36429     11.05309         0.135775      0.776123     -0.240033
Ti       5.68005      5.73714      2.17531         0.635525      0.353464      0.854345
Ti       5.74138      5.76669     15.44638        -0.562104     -0.162976      1.057672
Ti       5.72118      5.73619      6.63631         0.187226      0.154540     -0.067506
Ti       5.69984      5.75321     11.05222         0.398066      0.170691      2.411859
Ti       5.79265      9.57374      2.27395        -0.208771     -0.117933      1.341443
Ti       5.76601      9.52261     15.41572         0.396491      0.581332      1.067290
Ti       5.78239      9.58560      6.68590        -0.039236     -0.088824      3.021749
Ti       5.71488      9.55968     10.99975         0.688748     -0.141279      0.150059
Ti       9.54397      1.99560      2.36690        -0.336677     -0.310658      1.109437
Ti       9.52706      1.91990     15.27255        -0.150051      0.291058      0.576915
Ti       9.54653     13.47251      2.34298        -0.260677     -0.316953      1.584346
Ti       9.62514     13.42020     15.42300        -0.326546      0.538509      0.954510
Ti       9.53343      1.92483      6.67865         0.296718     -0.154944      0.217615
Ti       9.47598     13.39734      6.67207         0.321789      0.706547      0.168732
Ti       9.44023      1.76111     11.09832         1.246732      1.712065     -0.062689
Ti       9.57498     13.32942     11.10687        -0.906912      1.107188     -0.910300
Ti       9.53612      5.84726      2.37462         0.025450     -1.263444      0.236505
Ti       9.57929      5.87511     15.25277         0.181172     -0.758855      1.518950
Ti       9.60293      5.71068      6.76148        -0.726643     -0.613089      1.096829
Ti       9.59833      5.78148     10.98879        -1.015559     -1.142565      0.120003
Ti       9.62353      9.56384      2.32567        -0.166999      0.798746      2.032378
Ti       9.57199      9.68965     15.39571         0.660313     -1.070413     -0.823693
Ti       9.51405      9.56776      6.67953         1.131851     -0.440825      0.054107
Ti       9.54167      9.54815     11.09025         0.490442     -0.076473      1.014428
O       1.83323      1.92142      0.50284        -0.135816      0.019519      0.908452
O       1.73771      1.89806     13.72048         0.420589      0.008719     -2.424931
O       1.91778     13.42096      0.69056        -0.226160     -0.045629     -2.412286
O       1.98375     13.48635     13.69424        -0.366604     -0.147307      0.857378
O      13.37053      1.92452      0.56819        -0.049155     -0.129942      0.101827
O      13.41355      1.98072     13.43790        -0.195567     -0.442603      1.793068
O      13.27168     13.34730      0.69943         0.155784      0.352952     -1.345443
O      13.36072     13.46936     13.65103        -0.035406     -0.632561     -0.589968
O       1.95278      1.85116      4.85178        -0.261171      0.173210     -0.773247
O       1.85013     13.37494      4.75439         0.136707     -0.112690      1.186384
O      13.44281      1.79393      4.93882         0.043294      0.225675     -0.069625
O      13.32496     13.47138      4.94654         0.305146      0.148948     -1.773134
O       1.83498      1.79002      9.34702         0.332871      0.332441     -0.282293
O       2.01018     13.44855      9.30828        -0.565448     -0.139337      0.041740
O      13.42923      1.86927      9.35775        -0.031872     -0.003438     -2.006182
O      13.39051     13.32642      9.35515        -0.097838     -0.054780     -0.596564
O       1.80125      5.72923      0.55838         0.368013     -0.042984     -0.314205
O       2.06834      5.91644     13.67280        -0.700866     -0.345411     -0.223332
O      13.22565      5.79173      0.44065         0.204185     -0.343139      1.902830
O      13.41912      5.68844     13.62166        -0.030814      0.520204     -1.195693
O       1.95115      5.86441      4.88405        -0.465122     -0.603295     -0.313469
O      13.37224      5.77218      5.02177         0.102211     -0.025594     -0.308566
O       1.97500      5.56800      9.30459        -0.083355      0.413195     -1.937487
O      13.48121      5.62088      9.19671         0.022428     -0.018194      0.222493
O       1.95797      9.56851      0.70280        -0.102628     -0.281920     -1.304254
O       1.89739      9.55699     13.53785         0.095053     -0.054793      1.137526
O      13.36375      9.71395      0.60192         0.249837     -0.192948     -0.716551
O      13.50302      9.48861     13.66002        -0.369751      0.080249     -0.344314
O       1.98549      9.44812      4.91857         0.076596      0.001389     -0.768439
O      13.46076      9.45700      5.05955         0.000715     -0.110862     -1.807653
O       2.01211      9.69707      9.29868        -0.209679     -0.412742     -2.420822
O      13.46638      9.67219      9.19360        -0.110638      0.013661     -1.180748
O       5.66980      1.85658      0.49634         0.435757      0.273318     -0.399355
O       5.81298      1.78807     13.69936        -0.412853      0.427784      0.948121
O       5.60417     13.41355      0.57059         0.373735     -0.201719      0.345548
O       5.74362     13.34247     13.81324        -0.078705      0.077156     -3.398697
O       5.68612      1.77490      4.90477        -0.394083      0.166328      0.443012
O       5.62292     13.25855      4.96441         0.240220      0.581009     -1.261549
O       5.56939      1.99901      9.36802         0.260525     -0.560620     -0.429720
O       5.68329     13.45388      9.30696        -0.042412     -0.136277      0.418051
O       5.74165      5.76080      0.43711        -0.291349     -0.333969      0.006554
O       5.62019      5.74651     13.74765         0.376285      0.165124     -1.900890
O       5.60251      5.81922      4.89131         0.507552     -0.315170     -0.429021
O       5.61938      5.61241      9.37377         0.063846      0.201298     -2.161665
O       5.75054      9.53865      0.56598        -0.095649      0.372073     -0.967934
O       5.72444      9.65193     13.71204        -0.061550     -0.353304     -1.027507
O       5.77260      9.61071      5.00459         0.036105     -0.278935     -2.607291
O       5.84065      9.41621      9.26149        -0.292092      0.832391     -0.031795
O       9.31715      2.01735      0.63473         0.821666      0.093480     -0.440601
O       9.51523      1.94339     13.52107         0.030104     -0.584252     -0.028470
O       9.42792     13.44855      0.64260         0.641834      0.080224     -1.632050
O       9.55605     13.29882     13.67429         0.286100      0.469341     -1.023466
O       9.57476      1.85222      4.95361         0.075963      0.291461     -0.792677
O       9.41741     13.31398      4.91745         0.434344      0.345652      0.529370
O       9.60667      1.87326      9.33859        -0.537748     -0.344638      0.144615
O       9.36255     13.52631      9.35563         0.902448     -0.491050      0.149916
O       9.48644      5.77315      0.62300         0.557872     -0.080777     -0.831422
O       9.50357      6.03778     13.55760         0.505470     -0.539832     -0.888816
O       9.46511      5.54812      5.04378         0.467618      0.673379     -0.556663
O       9.51062      5.72290      9.21575         0.340088      0.105237      0.915323
O       9.59565      9.65875      0.65025        -0.058245     -0.356263     -2.215688
O       9.56469      9.50477     13.62678         0.271570      0.467855      0.170758
O       9.53846      9.59047      4.92140        -0.338835     -0.285428      0.156728
O       9.42348      9.56914      9.37616         0.342907      0.132083     -1.614874
O       3.82533      1.93688      2.62744        -0.389834     -0.122268      0.268105
O       3.78399      1.87121     15.81811         0.202307      0.370457     -0.127942
O       3.80818     13.33895      2.74240        -0.621762      0.123097      0.219670
O       3.78532     13.43602     15.90696         0.100493     -0.230492     -0.180144
O      15.28932      1.97842      2.71245        -0.144731     -0.390049      0.207752
O      15.24695      1.97598     15.74788         0.057752     -0.363970      0.198986
O      15.28526     13.36973      2.75637        -0.482450      0.321307      0.058496
O      15.34802     13.38132     15.93666        -0.088125      0.058088     -0.226196
O       3.76896      1.83996      7.12584        -0.426635      0.368889     -0.378974
O       3.76806     13.33980      7.14739        -0.038273      0.357023     -0.625258
O      15.35001      1.85122      7.18010         0.098516     -0.000662     -0.711661
O       0.00817     13.42845      7.08750        -0.073579     -0.412541     -0.586057
O       3.75311      1.84441     11.62530         0.820329     -0.624098     -0.156298
O       3.77408     13.46203     11.59666         0.739164     -0.099166     -0.448810
O      15.35349      1.96962     11.49254        -0.180523     -0.224633     -0.201967
O      15.33309     13.29976     11.54182        -0.541090      0.063873     -0.458093
O       3.77437      5.59269      2.73676         0.325940      0.326591     -0.770366
O       3.82844      5.79329     15.72085        -0.806808     -0.455452      1.181601
O      15.25161      5.75543      2.67953         0.213717     -0.194051      0.098545
O      15.24187      5.78477     15.77459         1.125345      0.097889      0.207459
O       3.82485      5.86785      7.01389        -0.610489     -0.871882      0.266488
O      15.30518      5.74395      7.10797         1.308219      0.235589     -0.214419
O       3.79199      5.74961     11.62594         0.624675      0.544842     -0.863236
O       0.01003      5.76111     11.55027        -0.430569     -0.585077     -1.131908
O       3.92070      9.67041      2.79724        -0.903767     -0.690055     -0.213757
O       3.83750      9.51414     15.79335        -0.467954      0.122793      0.136132
O       0.03659      9.49532      2.84359        -1.136300     -0.196172     -0.485830
O       0.01442      9.51862     15.81895         0.296187      0.354098      0.290462
O       3.84550      9.57777      7.07903         0.195405     -0.330715      0.075168
O       0.03174      9.52489      7.05672        -0.117944      0.105755      0.341165
O       3.81905      9.59902     11.42237         0.632463      0.035913      0.083089
O      15.31547      9.65026     11.36308        -0.253863     -0.178107     -0.024458
O       7.57201      1.89432      2.84842         0.453067      0.288558     -0.499902
O       7.63309      1.91582     15.81783         0.592407      0.033286      0.055911
O       7.67603     13.41011      2.74430        -0.839746     -0.017026      0.055678
O       7.73019     13.42812     15.85411        -0.315921     -0.023480     -0.056296
O       7.63215      1.99651      7.03001        -0.665664     -0.721893      0.484764
O       7.65607     13.46795      7.21847        -0.465997     -0.151317     -0.594960
O       7.59273      1.85788     11.47534        -0.662772      0.290442     -0.325540
O       7.68069     13.29798     11.56915        -1.051045      0.560917     -0.146481
O       7.67535      5.70417      2.59574        -1.416103      0.335321      0.615113
O       7.62440      5.73251     15.73445         1.358588      0.446830      0.225574
O       7.64202      5.71761      7.16837        -0.169995     -0.454034     -0.284675
O       7.62331      5.72410     11.52652        -0.278321      0.091656     -0.562701
O       7.63871      9.48456      2.78012         0.194324      0.394365     -0.201424
O       7.72757      9.49740     15.74072        -0.859616      0.573696      0.471916
O       7.67260      9.59988      7.14737        -0.034822     -0.265596     -0.171170
O       7.69293      9.61820     11.54166        -1.284532      0.081063     -0.017332
O      11.48329      1.98835      2.71057        -0.031821     -0.516718      0.028657
O      11.46778      1.97318     15.77919         0.305320     -0.574106     -0.060420
O      11.48055     13.42235      2.89917        -0.265617      0.355663     -0.555549
O      11.46362     13.36816     15.90324         1.047529      0.810292     -0.360854
O      11.50607      1.95492      7.07387         0.691759     -0.529042      0.115011
O      11.47473     13.43009      7.13782        -0.747722     -0.105419     -0.042657
O      11.47763      1.65398     11.41101        -0.580041      0.437551      0.151951
O      11.46671     13.42124     11.52567        -0.516639      0.348873     -0.128307
O      11.42094      5.76129      2.81155         0.780454     -0.273700      0.002356
O      11.46820      5.88618     15.65744        -1.018987     -0.223735      0.222133
O      11.55092      5.63557      7.24326        -0.736178      0.452362     -0.565520
O      11.58755      5.78340     11.52476        -1.270403      0.213922     -1.047653
O      11.49053      9.58270      2.86409         0.888386     -0.075717     -0.474573
O      11.49350      9.53889     15.80960        -0.098891      0.383726     -0.064611
O      11.45993      9.40893      7.01007        -0.038773      0.543957      0.670110
O      11.49898      9.58173     11.37199         0.106467     -0.236555      0.165142
O       1.75645      3.76404      2.74231         0.570434      0.905445      0.214379
O       1.76450      3.87007     15.91922         0.821040     -0.099626     -0.577433
O       1.75708     15.32980      2.79162         0.509882      0.547219     -0.459360
O       1.84604      0.04547     15.93160         0.202989     -0.205086     -0.681085
O      13.40106      3.87812      2.78897        -0.129155     -0.243310     -0.086494
O      13.30172      3.88210     15.76013         0.169145     -0.965073     -0.011289
O      13.41202      0.01954      2.83360        -0.156793      0.037320     -0.579716
O      13.42959     15.30600     15.68274        -0.457566      0.785372      0.452188
O       1.84640      3.81068      7.02700         0.205559      0.273278     -0.499362
O       1.84770     15.32893      7.03511         0.566270     -0.512323     -0.552237
O      13.49701      3.77041      7.04498         0.010365     -0.320365      0.192374
O      13.38895     15.26828      7.18316         0.309458      0.819359     -0.447554
O       2.00332      3.82763     11.43028        -0.430675     -0.174465      0.142191
O       1.78214     15.25618     11.57567         0.311159      1.015202     -0.574373
O      13.28690      3.77499     11.51599         0.574160      0.434449     -1.099945
O      13.49134     15.23524     11.52553        -0.392955      0.849003     -0.316862
O       1.92444      7.52969      2.72279         0.267549      1.101641      0.013880
O       1.87101      7.61864     15.82823         0.373550      1.787938      0.346490
O      13.31181      7.60876      2.80268         0.362556      0.811952     -0.385629
O      13.41168      7.71221     15.93602        -0.097754     -0.195336     -0.412119
O       1.95131      7.64547      7.17707        -0.592630     -0.921917     -0.213003
O      13.41595      7.60524      7.27453         0.055336      0.185216     -0.387588
O       1.88569      7.65306     11.36785         0.056084      0.050154     -0.147713
O      13.46957      7.61857     11.30339        -0.085953      0.584536     -0.099785
O       1.80611     11.42925      2.61403         0.213508      0.200618      0.708595
O       1.89277     11.44254     15.83817         0.171868      0.192112      0.208959
O      13.49660     11.51187      2.91725        -0.786505     -0.737774     -0.826807
O      13.37985     11.48787     15.90816         0.500292      0.105427     -0.580391
O       1.93311     11.45348      7.02561        -0.280418      0.355369     -0.091182
O      13.32849     11.51242      7.04769         0.364618     -0.534440      0.123017
O       1.89675     11.44770     11.37905         0.260468      0.932542      0.557181
O      13.25719     11.49941     11.56080         0.544186     -0.405673     -0.399717
O       5.78018      3.82074      2.61090        -0.420450      0.150565      0.098469
O       5.74258      3.83054     15.80857        -0.380642     -0.320517      0.277132
O       5.69628     15.32001      2.69346        -0.020948      0.148891     -0.065334
O       5.78371     15.30472     15.87595        -0.400515      0.106347      0.022953
O       5.68928      3.76979      6.95348        -0.236124      0.719121      0.332805
O       5.58836     15.30411      7.14661         0.796649      0.078722     -0.329281
O       5.55297      3.77920     11.49193         0.968111      0.089215      0.034689
O       5.74739     15.27539     11.59869         0.081647     -0.056531     -0.393299
O       5.67310      7.60011      2.60086        -0.024326      0.382120      0.329401
O       5.71577      7.63646     16.03007         0.396295      0.728185     -1.009632
O       5.80754      7.61495      7.08983        -0.167765      0.404839     -0.018519
O       5.71588      7.73687     11.36955        -0.029319     -1.250394      0.455314
O       5.80157     11.52097      2.84229        -0.253973     -0.653138     -0.685960
O       5.85475     11.44862     15.87215        -0.659890      0.010066     -0.091207
O       5.78582     11.48298      7.14034        -0.160721      0.206013     -0.042887
O       5.68160     11.52451     11.49912         0.153562     -0.326058     -0.154822
O       9.56029      3.84510      2.88186        -0.107457     -0.065045     -0.457561
O       9.54648      3.83116     15.62828         0.066736      0.699995      0.510524
O       9.42100      0.04459      2.74827         1.033763     -0.102615     -0.191292
O       9.64197      0.05858     15.84490        -0.155500     -0.764071     -0.265811
O       9.56138      3.77522      7.27232         0.372186      0.638804     -0.480800
O       9.52750      0.02825      7.13439         0.232604     -0.604685     -0.060357
O       9.50093      3.84390     11.49090         0.459237      0.051924     -0.451833
O       9.39082     15.31993     11.56444         0.805919     -1.170171     -0.121884
O       9.56159      7.67623      2.85151         0.006637     -0.036524     -0.067359
O       9.54549      7.74699     15.82071         0.042375     -0.985443      0.006166
O       9.51693      7.63366      7.20179         0.287751     -0.194436     -0.565759
O       9.50359      7.64351     11.41605         0.375276     -0.357154     -0.046149
O       9.60451     11.48438      2.74028        -0.250813      0.113555      0.105001
O       9.64865     11.56692     15.81511        -0.494597     -0.897576      0.080032
O       9.59094     11.47385      7.10566        -0.081349      0.286622      0.340950
O       9.48945     11.48492     11.35816         0.923235      0.253535      0.469257
