  # total energy = -7879.20234530 
CRSYTAL
PRIMVEC
    15.3600000000000000    0.0000000000000000    0.0000000000000000
     0.0000000000000000   15.3600000000000000    0.0000000000000000
     0.0000000000000000    0.0000000000000000    17.440000000000000
PRESSURE
1.1124 0.955967 -3.04355 0.058881 0.189481 -0.063532
PRIMCOORD
320 1
Pb       3.80392      3.82802      4.43607         0.024785     -0.334405     -0.526025
Pb       3.94294      3.74271     17.37584         0.031839      0.145380      0.100549
Pb       3.77930     15.29709      4.40227         0.004402      0.726330     -0.075047
Pb       3.85128      0.00629     17.38502        -0.024008     -0.189233     -0.077605
Pb       0.01476      3.79719      4.44968         0.240715     -0.080658     -0.887730
Pb       0.16729      3.85956      0.07840        -0.678077      0.052755     -0.298498
Pb       0.07123     15.28250      4.33525        -0.038375      0.000645     -0.209579
Pb      15.10056     15.26447      0.02770         0.155602      0.282758     -0.059012
Pb       3.72144      3.95273      8.62126         0.367730     -0.410524      0.015529
Pb       3.83657     15.35760      8.83671        -0.129698      0.050894     -0.415474
Pb      15.05572      3.97687      8.65223         0.611921     -0.561493      0.362541
Pb      15.23356      0.17089      8.74836         0.388588     -0.027221      0.016205
Pb       3.85521      3.74338     12.93308         0.032131      0.140827     -0.200011
Pb       3.70952     15.23980     12.91475         0.297513      0.327749     -0.158397
Pb       0.01740      3.65753     13.14608        -0.363411      0.404409     -0.389938
Pb       0.03606     15.35061     12.95343        -0.377875      0.201867     -0.376851
Pb       3.91541      7.66216      4.28273        -0.293722     -0.322807      0.159116
Pb       3.66594      7.59952      0.01893         0.178864      0.124173     -0.067698
Pb       0.22006      7.72499      4.32588        -0.650247      0.409576     -0.352259
Pb      15.25171      7.75437     17.36152         0.323814     -0.426716      0.194827
Pb       3.95575      7.65678      8.75100        -0.451819     -0.233941     -1.053843
Pb      15.34217      7.63730      8.70946         0.003562      0.282719     -0.405874
Pb       3.79514      7.60562     13.05704         0.200319     -0.697310     -0.538990
Pb       0.07810      7.66459     13.15669        -0.760679     -0.288567     -0.313552
Pb       3.62460     11.50068      4.31737         0.731265      0.076444     -0.112538
Pb       4.00135     11.33044     17.32806        -0.268471      0.599827      0.016851
Pb       0.13026     11.66818      4.20405        -0.602274     -0.394293     -0.011461
Pb      15.22286     11.48613     17.30516         0.187824      0.018739      0.022265
Pb       3.78637     11.59113      8.73011         0.014615     -0.000899      0.175764
Pb      15.31416     11.35351      8.72030        -0.274519     -0.039644     -0.344023
Pb       3.94647     11.46261     12.97378        -0.436854      0.583739     -0.226270
Pb       0.16333     11.48798     13.16929        -0.413555     -0.012812     -0.592269
Pb       7.71723      3.69918      4.42685        -0.017911     -0.512403     -0.320312
Pb       7.64073      3.87403     17.35485         0.108013      0.012794      0.112166
Pb       7.71075     15.35915      4.39577         0.629397      0.282420     -0.479890
Pb       7.40765     15.31512     17.35619         0.498861      0.264996      0.106146
Pb       7.65236      3.82385      8.70928         0.065694      0.319662     -0.608072
Pb       7.66893     15.26640      8.59569         0.062498     -0.036768      0.215323
Pb       7.84015      4.00740     13.27325        -0.396508     -0.323229     -0.844393
Pb       7.64175      0.18231     13.03282        -0.333472     -0.250249     -0.665409
Pb       7.58452      7.47737      4.26381         0.224736      0.694022      0.858186
Pb       7.58470      7.66420      0.00197         0.189906      0.082302      0.057020
Pb       7.60064      7.86726      8.66039         0.237406     -0.884608     -0.559287
Pb       7.59104      7.61778     12.96677         0.450737     -0.036387     -0.267972
Pb       7.72040     11.37556      4.39940        -0.578136      0.566967     -0.199787
Pb       7.52394     11.63566     17.35428         0.546427     -0.412229      0.092760
Pb       7.67598     11.49809      8.69730         0.415078      0.334002     -0.406083
Pb       7.85291     11.61219     13.05241        -0.209567      0.116249     -0.386394
Pb      11.55034      3.75367      4.36635        -0.542357     -0.391725     -0.500330
Pb      11.59809      3.80770      0.08620        -0.417648      0.164332     -0.505807
Pb      11.58783     15.29790      4.30712        -0.881091      0.192560     -0.496282
Pb      11.36305     15.25595     17.31540         0.394738      0.130469      0.135304
Pb      11.52991      4.07216      8.71286        -0.485192     -0.504926     -0.397045
Pb      11.45270     15.28957      8.65406        -0.022909      0.184831      0.097694
Pb      11.56474      3.68384     13.31886         0.304693      0.144982     -0.015031
Pb      11.45227     15.33502     13.06237         0.143367     -0.413301     -0.318688
Pb      11.54988      7.68497      4.20940         0.079646      0.187760     -0.109196
Pb      11.43019      7.58534      0.05394         0.194130     -0.043932     -0.554365
Pb      11.55412      7.69061      8.68261        -0.065888      0.307771     -0.454291
Pb      11.38773      7.68163     13.06119         0.301453      0.311596      0.196634
Pb      11.57127     11.37694      4.38906         0.063079      0.111413     -0.359750
Pb      11.33077     11.48188     17.36523         0.284829      0.052234     -0.267834
Pb      11.52316     11.53020      8.85414         0.137167     -0.418411     -0.957863
Pb      11.46570     11.42959     12.98964         0.575383      0.469442      0.064351
Ti       1.83401      1.85547      2.33194         0.727666      0.766207      0.588075
Ti       1.79839      1.82797     15.46826        -0.270714      0.044000     -0.495867
Ti       2.03086     13.49780      2.14615        -1.261491     -0.812679     -0.051199
Ti       1.93805     13.42377     15.43567         0.159707     -0.393588     -1.215740
Ti      13.33937      1.89808      2.22150         0.103504     -0.501284     -0.681721
Ti      13.38629      1.88082     15.46710        -0.575077     -0.129278     -0.988654
Ti      13.35859     13.40736      2.27336         0.232745     -0.311096     -0.634027
Ti      13.45718     13.35746     15.31719        -1.617426      0.712043      0.034290
Ti       1.81153      1.91482      6.74172         1.004614     -0.308981     -0.853503
Ti       1.87649     13.44822      6.82153        -0.204951      0.549639     -0.582189
Ti      13.27896      1.81101      6.64106         0.759782      1.015927     -0.069658
Ti      13.51107     13.38592      6.67699        -0.252321     -0.608373     -0.635832
Ti       1.85688      1.93019     10.98618        -0.458298     -0.545275     -0.029275
Ti       1.83027     13.35095     10.96827         0.711015      1.238381     -0.772890
Ti      13.24925      2.00509     11.03661         2.529304     -0.453331     -1.608796
Ti      13.42367     13.47365     10.95347        -0.091816     -0.181812      0.076575
Ti       1.97540      5.75894      2.29799        -0.772392     -0.475902      1.065170
Ti       1.98181      5.66849     15.41400        -0.959640      0.604998     -0.482800
Ti      13.46219      5.74956      2.34509         0.470645      0.451378     -0.237100
Ti      13.44016      5.72402     15.50980         0.035900     -0.425773     -1.440235
Ti       1.85630      5.75606      6.67048         1.649868      0.723062      0.421134
Ti      13.41145      5.74639      6.49358         0.107862      0.865749     -0.620861
Ti       1.80385      5.68906     11.04764         0.413826     -1.057350     -0.723398
Ti      13.34203      5.81301     11.16174         1.354391     -0.033859     -0.941814
Ti       1.91921      9.62715      2.17329        -0.551550     -0.296151      0.012390
Ti       2.04192      9.59391     15.36169        -1.112522     -0.010687      0.800514
Ti      13.39583      9.63441      2.23231         0.746295     -0.604150      0.712262
Ti      13.43366      9.60000     15.32167        -0.967830     -0.268642     -0.880712
Ti       1.92820      9.58613      6.76133        -0.433689     -1.101366     -1.193883
Ti      13.43116      9.53043      6.66065        -0.044755      0.166975     -0.077886
Ti       1.95213      9.47813     11.06715        -1.111752      0.863774     -1.532596
Ti      13.43384      9.60997     11.08858         0.539263     -0.461812     -0.948337
Ti       5.66782      1.94266      2.33767        -0.212016      0.393054     -0.657450
Ti       5.62508      1.99954     15.28584         0.826488     -0.499519     -1.855547
Ti       5.74530     13.52499      2.37096         0.395298     -0.327743     -1.404025
Ti       5.69795     13.47704     15.25191        -0.059967      0.429832     -0.161521
Ti       5.70865      1.83467      6.75586         0.324193      0.328513     -1.064618
Ti       5.75908     13.35940      6.72061         0.769304      0.365846     -0.303729
Ti       5.76332      1.90548     10.98144        -0.215787      0.111155     -0.738433
Ti       5.82407     13.42039     11.04016        -0.144426      0.833258     -0.215287
Ti       5.79671      5.75381      2.36173        -0.502021     -1.554879     -0.497470
Ti       5.78494      5.83562     15.30626        -0.175931     -1.881179     -0.741584
Ti       5.77028      5.66792      6.64187        -0.412639      0.992369     -0.511176
Ti       5.69414      5.72700     10.94443         0.414966     -0.479604      1.218104
Ti       5.71750      9.68635      2.31135         0.699599      0.006048     -1.389916
Ti       5.81333      9.49747     15.31333         0.504720      0.756012      0.625717
Ti       5.63127      9.67220      6.70339         1.276398     -1.254578     -0.689762
Ti       5.79091      9.60196     11.04063        -0.236659     -0.712871     -0.284692
Ti       9.45134      1.91644      2.04245         0.901374     -1.257366      1.980508
Ti       9.42862      1.86719     15.39024         1.368291      0.783218      0.390710
Ti       9.55353     13.33016      2.28505        -0.323120      1.826547      0.484417
Ti       9.53829     13.45693     15.31380         1.134375     -0.393995     -0.878979
Ti       9.57404      1.91536      6.80293        -0.214917      0.440244     -2.007624
Ti       9.72939     13.35771      6.62746        -1.584511      0.570760     -0.366963
Ti       9.56428      2.01604     10.90352        -0.442621     -1.367298      1.325488
Ti       9.66324     13.46486     10.89683        -0.503425      0.677115      0.654766
Ti       9.59770      5.67240      2.44142         0.512952     -0.463543     -1.932874
Ti       9.59386      5.75851     15.40602         0.655540      0.438604      0.379903
Ti       9.60019      5.84980      6.58229        -1.495776     -1.000704      0.593250
Ti       9.61815      5.71789     11.05377        -0.727836      0.206426     -1.601835
Ti       9.48710      9.55320      2.30765         0.619734      0.536423      0.076327
Ti       9.56897      9.57014     15.41318         0.687067     -0.355594     -0.694580
Ti       9.55023      9.55759      6.61523         0.757631      0.253995      0.266426
Ti       9.51650      9.60937     11.03742         1.131568      0.024503     -0.404829
O       1.86521      1.89860      0.57431         0.268335      0.145308     -1.003619
O       1.67412      1.90675     13.69312         0.350972     -0.349431      0.258290
O       1.97661     13.45226      0.40085         0.216749     -0.102595     -0.589307
O       1.97123     13.39630     13.60620        -0.194103      0.131535      0.093542
O      13.40502      1.77283      0.39767        -0.111798      0.331338      1.084397
O      13.43597      1.94756     13.59020        -0.301782      0.108117      0.034471
O      13.35043     13.40837      0.47752         0.283780     -0.315626     -0.134608
O      13.24542     13.33585     13.58836         0.576970      0.101719     -0.541600
O       1.82749      1.78614      4.93925         0.154952      0.187477     -0.031431
O       1.80783     13.57098      5.01051         0.481828     -0.470772     -0.022888
O      13.19067      1.86132      4.85889         0.433560      0.403643     -0.511094
O      13.54904     13.38015      4.85889        -0.328076     -0.084453      0.300086
O       1.79991      1.91406      9.25241         0.232521      0.031163     -1.666437
O       1.95080     13.51453      9.16758        -0.449761     -0.420640     -0.086982
O      13.42034      2.05725      9.15271        -0.213840     -0.369797      0.785153
O      13.40345     13.50295      9.14421         0.072643     -0.246785      0.492266
O       1.98186      5.78023      0.55103         0.191924     -0.678299     -0.830537
O       1.95275      5.71590     13.65298        -0.008928      0.097272     -0.037938
O      13.42012      5.72996      0.55731        -0.278615     -0.141820     -0.667458
O      13.39144      5.66482     13.67951        -0.060810      0.179653      0.963381
O       1.97054      5.85367      4.90021        -0.244022      0.080397     -0.787304
O      13.57809      5.66672      4.70891        -0.589683      0.254366      0.236018
O       1.89288      5.64690      9.21264        -0.231436      0.299425      1.072092
O      13.37016      5.81519      9.25298         0.012905     -0.012868      1.139090
O       1.89256      9.48355      0.41911         0.354590      0.956219     -1.034803
O       1.95003      9.59179     13.60830         0.429698     -0.156538     -1.368708
O      13.32345      9.63068      0.48604         0.437808      0.335981     -0.759515
O      13.47216      9.69323     13.50326        -0.235677     -0.249174      1.034531
O       1.92826      9.44570      4.93557         0.584861      0.210204     -0.185025
O      13.44079      9.54474      4.89882        -0.035707      0.105978     -0.366815
O       1.81468      9.53189      9.24315         0.306735     -0.206953      1.429304
O      13.51754      9.51764      9.20144         0.003939     -0.231018      0.831838
O       5.59273      1.97097      0.46321         0.214888     -0.056327      0.597302
O       5.72746      1.95742     13.43533         0.149639      0.200438      1.132103
O       5.75066     13.62896      0.49093        -0.152099     -0.558948      0.629820
O       5.69438     13.62465     13.47271         0.038979     -1.005205      0.599891
O       5.71161      1.83128      4.90843         0.168415      0.107440      0.788493
O       5.77187     13.27326      4.96656        -0.303983      0.297748     -0.485085
O       5.86787      1.85223      9.14973        -0.288209     -0.169563      1.010297
O       5.85070     13.51385      9.26238        -0.365713     -0.411207      0.149060
O       5.90558      5.68516      0.58603        -0.451972     -0.045721     -0.459533
O       5.80951      5.76908     13.47173         0.083633      0.232123      1.397596
O       5.74102      5.72499      4.82600        -0.045632      0.018956     -0.047371
O       5.76721      5.78367      9.20497        -0.110782      0.126991     -0.892714
O       5.77195      9.61016      0.44431         0.037704      0.125733      1.288212
O       5.82692      9.50724     13.54824        -0.323326     -0.135037      0.024466
O       5.72579      9.86681      4.93533        -0.589238     -0.475574     -0.229585
O       5.79153      9.49860      9.26624        -0.016930      0.264259     -0.269288
O       9.51447      2.03032      0.28516        -0.029762     -0.038032     -0.349666
O       9.61290      1.82470     13.58278        -0.373272      0.245934      0.028654
O       9.51848     13.31890      0.52503        -0.043815     -0.233299     -1.024602
O       9.68288     13.46743     13.48394        -0.703997      0.073021      1.262700
O       9.58982      1.85588      4.97764         0.008234     -0.115222      0.260008
O       9.63922     13.65459      4.83377         0.020084     -0.723672      0.689588
O       9.69863      2.13165      9.20481        -0.393042     -0.323336     -1.777283
O       9.73519     13.23425      9.13597        -0.085603      0.375685     -0.403779
O       9.70849      5.51136      0.59225        -0.482594      0.619190      0.720179
O       9.59639      5.90056     13.62241        -0.111677     -0.507976     -0.688822
O       9.55352      5.91415      4.81198         0.139416     -0.242283     -0.501212
O       9.49648      5.67999      9.24056         0.722408      0.245675      0.850488
O       9.49631      9.79207      0.55203         0.093333     -0.636383     -0.038000
O       9.66266      9.47939     13.62845        -0.606132      0.548367     -0.637230
O       9.64496      9.52722      4.85932        -0.098277      0.063869     -1.050409
O       9.49229      9.65264      9.27309         0.228355     -0.034239     -0.039298
O       3.76283      1.98208      2.76836         0.047825     -0.450493     -0.019597
O       3.79547      1.83349     15.66447        -0.832058      0.713289      0.454124
O       3.88016     13.45785      2.75643        -0.951398     -0.458842      0.244078
O       3.84938     13.47470     15.76904         1.095126     -0.044793     -0.169008
O      15.30978      1.72644      2.62125        -0.838320      0.704479      0.299820
O      15.25407      1.90599     15.86032         1.359017     -0.328689      0.207324
O       0.14687     13.38662      2.48583        -1.455964      0.242073      0.613427
O      15.32448     13.27888     15.62466        -0.047346      0.104968      0.459500
O       3.90527      1.80375      7.11246        -1.013742     -0.275039      0.218892
O       3.86024     13.41902      7.17085        -0.505421     -0.023834     -0.214414
O      15.34203      2.01284      6.93132        -1.250340      0.059391      0.597219
O      15.32567     13.40783      7.04736         0.044928      0.065828      0.564225
O       3.78990      1.83066     11.31897         0.202152      0.424782      0.172486
O       3.74007     13.47220     11.29695         1.121307     -0.172150      0.527431
O      15.30602      1.91161     11.27651        -0.778306     -0.073112      0.944660
O      15.33872     13.42002     11.38637        -0.607268     -0.293587      0.233080
O       3.86527      5.63120      2.76423        -0.301096      0.562114     -0.190437
O       3.86190      5.71815     15.69075         0.489286      0.343225      0.413319
O       0.01881      5.78461      2.59614         0.744030     -0.174327      0.385882
O       0.06181      5.69234     15.84528        -1.110956      0.374041      0.176997
O       3.83983      5.81953      6.98118         0.283075     -0.189441      0.766723
O       0.02249      5.67472      6.90314        -0.971901      0.173138      0.344812
O       3.80278      5.68471     11.46180        -0.367755      0.493368     -0.203809
O       0.00018      5.70274     11.49855        -0.609810      0.222527     -0.128500
O       3.88471      9.74781      2.55079        -0.584966     -0.572402      0.610134
O       3.92884      9.48786     15.80097        -0.373498      0.040069     -0.325146
O       0.10053      9.49014      2.60822        -0.757592      0.547660      0.113697
O      15.35465      9.66951     15.57467        -0.111509      0.054785      0.750907
O       3.79585      9.63246      7.18389         0.796786      0.157146      0.136247
O       0.09247      9.46346      7.00671        -1.773516      0.109860      0.750902
O       3.88772      9.62824     11.34490        -1.165660     -0.611047      0.537244
O       0.01592      9.57717     11.46779         1.242912      0.051018      0.168181
O       7.66278      1.88522      2.66901        -0.575716      0.095404     -0.029960
O       7.56953      1.96958     15.71250         0.586229     -0.116640     -0.247723
O       7.53642     13.42332      2.68231         1.394520      0.436103      0.444687
O       7.63595     13.42266     15.73827        -0.752228      0.373942     -0.296132
O       7.70145      1.90295      6.98110        -0.780101      0.059548      0.782633
O       7.75918     13.27970      7.04262        -0.102476      0.320652      0.196157
O       7.65036      1.89425     11.31222         0.380643      0.208466      0.342609
O       7.67557     13.46347     11.33225         0.166157     -0.371129      0.403331
O       7.67723      5.70703      2.75736         0.203523      0.075240      0.078257
O       7.69890      5.72245     15.75127        -0.729258      0.325872      0.044729
O       7.61218      5.76886      6.91329         0.708141     -0.344598      0.412454
O       7.78460      5.61996     11.45248        -1.205835      0.695863      0.267050
O       7.64257      9.49070      2.76103         0.275853      0.316291     -0.076318
O       7.67155      9.57893     15.81566        -0.858269     -0.591119     -0.141040
O       7.69090      9.57892      6.98363        -0.881499      0.619804      0.476552
O       7.64466      9.64745     11.40592         0.652849     -0.160682      0.376070
O      11.40204      1.85089      2.51735         0.963612      0.445808      0.198543
O      11.50749      1.89388     15.63462        -1.073462      0.030488      0.429694
O      11.42450     13.37198      2.58559         1.369566     -0.166861      0.382549
O      11.42782     13.47352     15.65640        -0.396683     -0.444775      0.667270
O      11.49243      1.88226      7.02919         0.561238      0.226276      0.525278
O      11.55962     13.41703      7.08420         0.382050     -0.094312     -0.157609
O      11.45977      1.94006     11.24839        -0.005489     -0.364262      0.962781
O      11.53189     13.46933     11.34559         0.311846     -0.366183     -0.049455
O      11.51013      5.68709      2.75097         0.431870      0.146984      0.257191
O      11.46069      5.70567     15.82159         1.014334      0.138252      0.328930
O      11.43394      5.84180      6.92218         1.174032     -0.055655      0.228254
O      11.51029      5.85027     11.41277        -0.238880     -0.114072      0.191523
O      11.54457      9.76519      2.68415        -0.620824     -0.859950      0.052437
O      11.49034      9.46064     15.67337         0.088427      0.934514      0.550153
O      11.50068      9.55235      6.94440         0.382256     -0.608128      0.674241
O      11.54673      9.56395     11.30436        -0.814968      0.163859      0.318492
O       1.89226      3.77226      2.85027        -0.654136      0.658081     -0.354656
O       1.81178      3.80113     15.79214         0.758800     -0.588702      0.289191
O       1.84361     15.30991      2.68916         1.094052      0.243543      0.180228
O       1.91276     15.24516     15.77802        -0.528677      1.819852      0.137311
O      13.45003      3.80400      2.55150        -0.094377     -1.031932      0.412044
O      13.33935      3.77247     15.75454         0.332668      1.055796      0.434703
O      13.34923     15.24506      2.50672         0.245102      0.977055      0.717657
O      13.33608     15.30356     15.73226         0.659158     -0.598333      0.203518
O       2.08635      3.82757      6.97561        -0.498965      0.007372     -0.120466
O       1.84489      0.01969      7.04118         0.112758     -0.368758      0.821899
O      13.38468      3.97174      6.92154        -0.335249     -1.689875      0.503198
O      13.44362     15.34295      6.82711        -0.009280     -0.117599      0.845186
O       1.79038      3.75648     11.49929         0.856446      1.000917      0.098260
O       1.78033      0.00920     11.31637         0.288118     -0.468315      0.661417
O      13.38851      3.88397     11.33889        -0.312061     -0.403382      0.465435
O      13.42321     15.33425     11.33977        -0.068025      0.534279      0.163155
O       2.03830      7.72410      2.38355         0.570353     -1.138256      1.478942
O       1.86124      7.71562     15.79040         0.486751     -0.658022     -0.102964
O      13.47744      7.70333      2.49540        -0.777184     -0.028322      0.699497
O      13.40008      7.67917     15.87555         0.308250     -0.361263     -0.384733
O       2.00074      7.66895      7.13435        -0.352449     -0.689347      0.255149
O      13.50130      7.57899      6.94200        -0.211467      0.554929      0.621692
O       1.84956      7.54021     11.53101         0.743071      1.766905     -0.252147
O      13.52096      7.69256     11.55139        -0.206718     -0.635997     -0.116512
O       1.89905     11.52936      2.60802         0.711956      0.139781      0.141419
O       2.00102     11.51625     15.55613         0.210427     -1.087936      1.043373
O      13.53733     11.50405      2.67182         0.015214      0.196794      0.261138
O      13.25218     11.47501     15.74253         0.600405      0.051818      0.304062
O       1.78838     11.47172      6.94809         0.741916      0.943386      0.755977
O      13.44338     11.39984      7.04924         0.255739      1.072604      0.260586
O       1.95288     11.53300     11.22225        -0.160484     -1.723344      0.837153
O      13.40710     11.46230     11.30509         0.063054      1.003212     -0.000702
O       5.75857      3.76009      2.70968         0.131735      0.935153      0.343283
O       5.77802      3.87371     15.63961        -0.429230      0.259101      0.416394
O       5.56984      0.09572      2.59044         0.629240     -1.586270      0.656364
O       5.79075      0.12569     15.58834        -0.117135     -1.817024      0.569736
O       5.66308      3.81290      7.11723         0.479049     -0.147809     -0.305409
O       5.94372     15.23975      7.05454        -0.680554      0.520319     -0.097088
O       5.64048      3.88202     11.25080         0.347816     -1.309813      0.291985
O       5.72320     15.35724     11.41437         0.058082     -0.030126     -0.136325
O       5.78681      7.61204      2.55758        -0.552149      1.152448      0.680823
O       5.83876      7.58713     15.84405        -0.274028      1.093939     -0.371707
O       5.80012      7.70626      6.88555        -0.627384      0.476742      0.781590
O       5.72014      7.60370     11.32833         0.318163      0.911979      0.515390
O       5.83669     11.53091      2.66399        -0.320661     -0.335127     -0.265285
O       5.72654     11.48099     15.62677        -0.092763      0.397636     -0.085559
O       5.76261     11.49296      7.24792        -0.270670      0.004986      0.140349
O       5.77759     11.46614     11.38986        -0.256222      0.974959      0.286499
O       9.54826      3.79799      2.72913         0.061505     -0.486882      0.309773
O       9.53692      3.87459     15.59238        -0.028124     -1.001897     -0.110826
O       9.49813     15.35088      2.42926         0.001367      0.155108      0.354513
O       9.56233     15.34721     15.73494        -0.614302     -0.113193     -0.022173
O       9.56045      3.83296      6.95796         0.279013      1.093621      0.288844
O       9.63198     15.35197      7.10169         0.015892     -0.955831      0.419069
O       9.65798      3.81559     11.30721         0.073233      0.726530      1.028112
O       9.61207     15.29917     11.14178         0.046691      1.392122      0.477946
O       9.67544      7.63571      2.53222        -0.092233      0.732580      0.269960
O       9.68653      7.68073     15.75689        -1.005882     -0.554848      0.917703
O       9.50247      7.68245      7.08667         0.327819     -0.132110      0.242686
O       9.61097      7.76980     11.36259        -0.402405     -1.044234      0.204901
O       9.56931     11.52535      2.71527        -0.566119     -1.257746      0.528138
O       9.42773     11.47428     15.63382         0.672564      0.946535      0.283004
O       9.64260     11.45710      6.98716         0.265167      0.415918     -0.147204
O       9.61964     11.64071     11.40568        -0.288965     -2.213893      0.470071
