  # total energy = -7867.56472555 
CRSYTAL
PRIMVEC
    15.010000000000000    0.0000000000000000    0.0000000000000000
     0.0000000000000000   15.010000000000000    0.0000000000000000
     0.0000000000000000    0.0000000000000000    16.400000000000000
PRESSURE
18.0946 17.9335 9.55222 0.154142 0.018561 -0.042108
PRIMCOORD
320 1
Pb       3.58317      3.64544      3.99145         0.407628      0.451531      0.464822
Pb       3.66809      3.70452     16.34566        -0.195346     -0.328633      0.219889
Pb       3.82354     14.87769      4.12015        -0.325691      0.172878      0.120935
Pb       3.79920     14.98515      0.07571        -0.221068     -0.031815     -0.221652
Pb      15.00646      3.79138      4.21202        -0.068642      0.181253     -0.854223
Pb      14.92579      3.71626      0.14088         0.299210      0.088554     -0.244931
Pb      14.93128     15.00337      4.21273         0.360523     -0.119428     -0.903269
Pb       0.05299      0.01474      0.05252         0.176072     -0.114751     -0.303644
Pb       3.65434      3.70538      8.18409        -0.244198      0.111662     -0.117106
Pb       3.72717      0.16446      8.22866         0.034690     -0.429808      0.038168
Pb      14.85954      3.67411      8.15704         0.588596      0.484181      0.196320
Pb      14.97694      0.07212      8.21574        -0.180540     -0.004335      0.039701
Pb       3.75191      3.64696     12.45695        -0.025763     -0.092168     -0.732648
Pb       3.68741     14.98329     12.27007        -0.262797      0.149572     -0.013648
Pb      14.89364      3.79241     12.32797         0.025162     -0.801588     -0.241843
Pb      14.95442      0.00103     12.33275        -0.483601      0.279334     -0.522991
Pb       3.90800      7.54451      4.20019        -0.668162     -0.204511     -0.732662
Pb       3.76738      7.59567     16.33475        -0.258914     -0.166888      0.207115
Pb       0.13442      7.53428      4.14842        -0.694495     -0.024122     -0.002641
Pb       0.09789      7.41492      0.05326        -0.900543      0.575252     -0.430846
Pb       3.73372      7.50138      8.37471        -0.271429     -0.536191     -0.658523
Pb       0.02839      7.52480      8.19411        -0.140442     -0.234450     -0.046373
Pb       3.68535      7.32501     12.39431         0.055578      0.531172     -0.400450
Pb      14.94385      7.55097     12.31197        -0.504072      0.004042     -0.236503
Pb       3.89480     11.09723      4.06016        -1.165291      0.501077      0.860299
Pb       3.77004     11.30099      0.17943        -0.341948     -0.051644     -0.823598
Pb       0.05367     11.19669      4.17141        -0.028472      0.173404     -0.120144
Pb       0.07595     11.17819      0.10409        -0.532812      0.058957     -0.633038
Pb       3.69802     11.30949      8.21745         0.467302     -0.076933     -0.023646
Pb       0.02819     11.28773      8.15866        -0.311024     -0.288941     -0.014785
Pb       3.72917     11.12578     12.34644         0.016901      0.461769     -0.441379
Pb      15.00349     11.19927     12.30292        -0.460671      0.076578     -0.147455
Pb       7.41356      3.84378      4.10548         0.198173     -0.277423     -0.609041
Pb       7.44519      3.68856      0.08047        -0.240306     -0.147279     -0.027012
Pb       7.51040     14.95167      4.06801         0.022444      0.007269     -0.120029
Pb       7.63775     14.89658      0.03605        -0.838283      0.433847     -0.175387
Pb       7.42898      3.81822      8.28152        -0.084429     -0.676673     -0.301559
Pb       7.37496     14.96391      8.25090         0.743388      0.211639     -0.117563
Pb       7.41820      3.72634     12.40279         0.205830      0.219976     -0.218652
Pb       7.40902      0.08731     12.22016         0.432189     -0.182695      0.138461
Pb       7.64294      7.42608      4.18463        -0.107217      0.378754     -0.650218
Pb       7.48488      7.41729     16.38656        -0.301381      0.048956     -0.075259
Pb       7.57236      7.43396      8.16035        -0.364465      0.002090     -0.227999
Pb       7.44094      7.56074     12.22076         0.041497     -0.343584      0.256978
Pb       7.48747     11.11079      4.15341         0.468104     -0.068554     -0.354698
Pb       7.46402     11.23581     16.38425        -0.037059      0.276683     -0.007431
Pb       7.55253     11.26037      8.21616        -0.427172      0.052129      0.051167
Pb       7.47605     11.30956     12.29579        -0.179092     -0.090306     -0.326183
Pb      11.34121      3.75098      4.18783        -0.294284     -0.131589     -0.654897
Pb      11.23212      3.74421      0.08595         0.141983     -0.057906     -0.459991
Pb      11.19304     14.91355      4.09083        -0.038164      0.200578     -0.288387
Pb      11.38054     14.99480     16.37685        -0.433026     -0.100615     -0.280543
Pb      11.17259      3.66973      8.36030         0.640267      0.058562     -0.754003
Pb      11.20134     15.00279      8.19101         0.032697     -0.041637     -0.239771
Pb      11.16019      3.74569     12.35137         0.285293     -0.186545      0.168292
Pb      11.16531     14.82022     12.36421         0.836600      0.895075     -0.505927
Pb      11.29797      7.50428      4.10445        -0.204035      0.213938      0.249867
Pb      11.24301      7.42943     16.36512         0.606908     -0.136355     -0.125961
Pb      11.32941      7.48834      8.23169         0.086138     -0.100745     -0.726617
Pb      11.04097      7.54676     12.34729         0.868317     -0.692145      0.323756
Pb      11.17669     11.21996      4.10940         0.016059     -0.292227     -0.246949
Pb      11.16410     11.36530      0.00820         0.695743     -0.376497     -0.204540
Pb      11.32347     11.38207      8.16464         0.013742     -0.463340     -0.360175
Pb      11.16736     11.20884     12.35553         0.559720      0.212144     -0.188960
Ti       1.78706      1.82768      2.18673         0.683416      0.390309     -0.893376
Ti       1.80981      1.82690     14.34582         0.139411     -0.443901      0.799705
Ti       1.83246     13.09680      2.21970         0.348396      0.848932     -0.594415
Ti       1.80576     13.09745     14.45993         0.868759      0.834270      0.470671
Ti      13.07431      1.85963      2.06573         0.561770      0.490201      0.579340
Ti      13.09813      1.90756     14.45808         0.336980     -0.861793     -2.067344
Ti      13.13090     13.12009      2.02808        -0.189060      0.084348      1.020756
Ti      13.16703     13.08815     14.36976        -0.716005      0.172804      0.513634
Ti       1.83552      1.82401      6.13490         0.305826      0.689264      1.440605
Ti       1.89631     13.17352      6.22445         0.383185     -1.209496     -0.612035
Ti      13.05411      1.83604      6.07301         0.021834      0.451732      2.276380
Ti      13.13976     13.17551      6.07236        -0.274418     -1.129908      1.033940
Ti       1.79406      1.91352     10.28362         0.715723     -0.715943      0.328355
Ti       1.86217     13.09994     10.26959         0.273982      1.476368      0.267010
Ti      13.07582      1.92737     10.34965         1.284545     -1.771917      1.244595
Ti      13.14356     13.07204     10.25662        -0.589104      1.619904      0.695906
Ti       1.81357      5.66404      2.08523         0.005105     -0.882433      0.674217
Ti       1.75260      5.57070     14.36754         0.783803     -0.095391      0.830271
Ti      13.06807      5.68083      2.09201         0.687565     -0.218386     -0.165715
Ti      13.09245      5.58282     14.27865        -0.275661      0.912549      2.087758
Ti       1.85063      5.63940      6.18989        -0.216951     -0.421022      0.310050
Ti      13.08695      5.60807      6.19196        -0.081573      0.671970      0.166168
Ti       1.81858      5.58463     10.41588        -0.380436     -0.404345     -1.803791
Ti      13.06183      5.64420     10.32251         0.689719     -0.233195     -0.292234
Ti       1.81328      9.38764      2.10199         1.333437     -0.367920      0.020128
Ti       1.84788      9.36679     14.30452        -0.025461      0.277005      1.249204
Ti      13.06843      9.42010      2.12099         0.555257     -0.668241     -0.294953
Ti      13.08799      9.34580     14.51510         0.837856     -0.389367     -0.977179
Ti       1.94390      9.42416      6.20434        -0.436587     -0.601138     -0.112877
Ti      13.16327      9.41113      6.17727        -0.398403     -0.494353      0.375172
Ti       1.84297      9.33647     10.29495        -0.772956      0.179641     -0.522821
Ti      12.98464      9.38600     10.29690         3.051439     -0.293656     -0.234204
Ti       5.55882      1.86368      2.17330         1.011860     -0.555489     -0.664941
Ti       5.62828      1.83101     14.45351        -0.949828     -0.430349      0.001807
Ti       5.62090     13.03156      2.17321         0.376283      1.329219     -0.896568
Ti       5.57278     13.10054     14.31788         0.155415      0.641737      0.837152
Ti       5.69187      1.87047      6.16362        -1.239403     -0.026990      0.991456
Ti       5.62533     13.12307      6.20536        -0.882263     -0.435895     -0.308736
Ti       5.64031      1.90486     10.28470        -0.741826      0.086101      0.585729
Ti       5.58439     13.11947     10.32551        -0.218892      0.168996     -0.469201
Ti       5.51024      5.56918      1.99014         0.734965      0.770905      0.581040
Ti       5.55495      5.62593     14.39855         0.579052     -0.148000      0.032297
Ti       5.54277      5.56819      6.14623         0.038534      0.516152      1.492495
Ti       5.60591      5.59698     10.29901        -0.424452     -0.279173      0.252927
Ti       5.68612      9.30065      2.08230        -0.319204     -1.349397      0.022616
Ti       5.64448      9.35446     14.36574        -0.179732      0.668479      0.670569
Ti       5.65483      9.31854      6.24036        -0.474893      0.707347      0.929736
Ti       5.54121      9.35340     10.22509         0.718103      0.805430      1.640250
Ti       9.37213      1.90857      2.13316        -0.344636     -0.493096     -0.338760
Ti       9.36231      1.83544     14.41600         0.199018      0.271555     -0.199938
Ti       9.38031     13.09678      2.07443         0.638700      0.047805      0.698618
Ti       9.34070     13.12612     14.39749         0.036570      0.142115      0.458400
Ti       9.33779      1.88072      6.12008         0.412267     -1.516639      1.257904
Ti       9.34638     13.07449      6.17710         0.747388      1.014925      0.310259
Ti       9.45155      1.87389     10.34972        -1.187765     -0.980873     -0.051126
Ti       9.37396     13.10127     10.23053         0.172614      0.820526      0.973221
Ti       9.39376      5.55950      2.06317        -1.638202      0.436188      1.178355
Ti       9.31957      5.53460     14.48146         0.105179      0.517417     -0.501724
Ti       9.35856      5.49986      6.15910         0.313200      2.051892      0.483323
Ti       9.38612      5.57530     10.22788        -0.245268      0.897008      1.853580
Ti       9.37348      9.29124      1.90008         0.271463      0.586052      2.633379
Ti       9.37234      9.34701     14.42392        -0.233301     -0.186193      0.401882
Ti       9.37597      9.36548      6.30654         0.512798     -0.675080     -0.744724
Ti       9.34333      9.35942     10.30792        -1.072066      1.079443     -0.803428
O       1.86561      1.85231      0.35963        -0.250229      0.011915     -0.193195
O       1.96812      1.85676     12.54812        -0.320343      0.092290      0.020456
O       1.96161     13.10820      0.35509        -0.364851     -0.157759      0.595222
O       1.70683     13.18500     12.69922         0.463293     -0.390720     -1.606415
O      13.18056      1.91425      0.22757        -0.249232     -0.131829     -0.079936
O      13.17734      1.86944     12.56134        -0.266473      0.417885      1.182166
O      13.15788     13.20949      0.24215        -0.313503     -0.369357     -0.384404
O      13.20637     13.05457     12.56790        -0.273252     -0.056410     -0.014671
O       1.82935      1.92967      4.36674        -0.108242     -0.165850     -0.619367
O       1.92513     13.13746      4.42216        -0.645975      0.041665     -0.797238
O      13.11829      1.79442      4.34092        -0.066187      0.435681     -1.499959
O      13.11436     13.27288      4.30342         0.126212     -0.416350     -0.535581
O       1.72436      1.84174      8.47694         0.114009     -0.111761     -0.846283
O       2.04670     13.12206      8.46785        -0.426174      0.193194     -0.564808
O      13.12735      1.83400      8.54918        -0.245420     -0.056192     -0.669735
O      13.06414     13.02937      8.44528         0.298746      0.209120     -0.270023
O       1.78805      5.69770      0.30699        -0.133165     -0.272928     -1.411632
O       1.74799      5.55811     12.58854         0.808904      0.298025     -0.630591
O      13.02737      5.59810      0.27461         0.670335      0.027432      0.234267
O      13.10337      5.71488     12.54196        -0.076570     -0.144137     -1.264331
O       1.84210      5.59154      4.34591        -0.000624     -0.077333      0.202876
O      13.00953      5.59665      4.33657         0.142872     -0.102056      0.507912
O       1.77782      5.63889      8.53362         0.403378      0.007368      0.195002
O      13.01566      5.55837      8.49787        -0.085902      0.237090     -0.666311
O       1.89762      9.40959      0.27301        -0.284093     -0.162809     -0.173925
O       1.79050      9.34461     12.49207         0.514126      0.341631      0.207189
O      13.18513      9.44549      0.32567        -0.303379     -0.393972     -0.558284
O      13.13831      9.22242     12.61499        -0.311814      0.492412      0.065107
O       1.90706      9.43828      4.38159        -0.346310     -0.433192     -0.794524
O      13.12860      9.36716      4.39770         0.132948      0.019372     -0.911705
O       1.85446      9.33521      8.42806         0.314608     -0.084588      0.148200
O      13.19914      9.49950      8.48386        -0.507413     -0.139442     -0.216893
O       5.59743      1.88579      0.35606         0.051434      0.013395     -1.046934
O       5.45907      1.82728     12.60834         0.491023     -0.102339     -0.124725
O       5.56378     13.08479      0.28161         0.335485     -0.518425      1.039682
O       5.62781     13.27921     12.49869         0.089993     -0.617229      0.434062
O       5.66658      1.77388      4.41490         0.092611      0.313357     -1.276397
O       5.63690     13.13227      4.33393         0.533488      0.083231      0.217426
O       5.70060      1.96649      8.51748         0.330873      0.091999     -1.504061
O       5.56463     13.11349      8.48495        -0.074495     -0.169531     -0.244266
O       5.60525      5.48754      0.20840        -0.068532      0.591168     -0.335049
O       5.60282      5.62213     12.55478         0.146515      0.565454      0.309879
O       5.47892      5.70599      4.38080         0.372306     -0.504193     -0.665041
O       5.46256      5.52260      8.50013         0.471928      0.047855     -0.161106
O       5.64835      9.34851      0.30365         0.321754      0.375273     -0.981347
O       5.50179      9.38101     12.60988         0.295683     -0.359869     -1.296392
O       5.63236      9.25937      4.42992         0.513844      0.272581     -1.102659
O       5.54582      9.36805      8.47255         0.129164      0.197162     -0.839612
O       9.31892      1.97599      0.27839        -0.033156     -0.516344      0.733264
O       9.36994      1.91071     12.59722         0.065671      0.071527      0.133734
O       9.41068     13.07476      0.28822        -0.306250      0.603752     -0.990160
O       9.38185     13.09426     12.62071        -0.115811     -0.249668     -1.072098
O       9.41226      1.71655      4.36392        -0.432094      0.828009     -0.271368
O       9.51321     13.15271      4.36899        -0.891544     -0.550267     -0.526851
O       9.40160      1.88110      8.51636         0.133862     -0.102524      0.406886
O       9.44891     13.12531      8.45556        -0.344598     -0.093429     -0.987325
O       9.34268      5.57341      0.27857        -0.045719     -0.080463     -0.754751
O       9.25368      5.53984     12.68328         0.379594      0.195436     -0.926467
O       9.36626      5.61548      4.37249        -0.062903     -0.273063     -0.463383
O       9.49473      5.63007      8.47603        -0.167583      0.017166     -1.027851
O       9.30812      9.25386      0.16614         0.138731      0.337143     -1.154979
O       9.44625      9.30908     12.60772        -0.269251      0.643999     -0.753491
O       9.29142      9.47969      4.48496        -0.077404     -0.292024     -0.591931
O       9.24964      9.38454      8.48126         0.453414     -0.294161      0.282633
O       3.75819      1.75625      2.46515        -1.345496      0.177638      0.166437
O       3.70021      2.02020     14.63625         0.252112      0.058289      0.443262
O       3.75898     13.14947      2.44345         0.079143     -0.141692     -0.258746
O       3.74739     12.93019     14.68925         0.336023     -0.236053     -0.359230
O      14.98371      1.95898      2.45595        -1.074436      0.088059     -0.095395
O      14.95286      1.64236     14.65705         0.998436     -0.011414      0.212767
O      14.96778     12.98601      2.40873         0.368686      0.194333      0.002511
O      14.96536     13.24805     14.72731         0.125841      0.381183      0.340538
O       3.73309      1.78204      6.45007         0.292660     -0.081336      0.158310
O       3.78772     13.38688      6.23653         0.097707     -0.322500      1.042161
O      14.93020      1.97416      6.48566         0.340435     -0.572852     -0.411681
O       0.01812     12.97897      6.40646        -0.228042      0.176721      0.260119
O       3.74927      1.85656     10.26847        -0.255746     -0.024190      0.908498
O       3.72089     13.23316     10.64133        -0.160224      0.110146      0.151302
O      14.99051      1.93348     10.59615        -0.899162      0.293849      0.156913
O      14.98929     13.04205     10.41075         0.664194     -0.263904      0.324565
O       3.67873      5.89962      2.22021         0.319392     -0.521156      0.458129
O       3.69087      5.48955     14.70347         0.050683      0.254517     -0.444501
O      14.93366      5.46377      2.36336         0.277199      0.269159      0.114343
O      14.97762      5.81765     14.57361        -0.235573      0.033312      0.559818
O       3.68688      5.66618      6.53989         0.340470      0.472143     -0.184171
O      14.97492      5.47364      6.48526        -0.295011     -0.002029     -0.286526
O       3.75275      5.73500     10.68159        -0.099335     -0.311858     -0.292512
O      14.93829      5.49224     10.67490         0.233600      0.294837     -0.294318
O       3.75696      9.30845      2.23228         0.181502     -0.350907      0.736212
O       3.80370      9.49032     14.63645        -1.433004      0.348534      0.280723
O       0.00720      9.59653      2.31837        -0.753639     -0.048900      0.414505
O      14.99558      9.32092     14.65315         1.010935     -0.563917      0.054352
O       3.76074      9.20377      6.33010         0.353466     -0.455073      0.796244
O       0.05668      9.56357      6.41802        -0.649669      0.036542      0.180415
O       3.68972      9.28824     10.54639         0.969218     -0.253599      0.310647
O       0.00416      9.41978     10.53124        -0.549100      0.261171      0.253253
O       7.48569      2.17533      2.42729         0.158524     -0.629505     -0.033596
O       7.43224      1.64489     14.58829         0.903093      0.330654      0.276107
O       7.55240     13.02894      2.27978        -1.222747     -0.098970      0.577317
O       7.50243     13.33480     14.65985        -0.613318     -0.255101      0.210304
O       7.51528      2.05835      6.50211         0.369978     -0.071103     -0.044649
O       7.47964     13.01312      6.46371         0.658924     -0.294946      0.112312
O       7.53979      2.05669     10.65252         0.062694     -0.558106     -0.077045
O       7.49330     13.05008     10.46277        -0.418147      0.049689      0.480067
O       7.44793      5.42585      2.32472         0.299790     -0.212864      0.222243
O       7.45640      5.77665     14.65098         0.305941     -0.198117      0.268753
O       7.47775      5.48049      6.50945        -0.212092     -0.002297      0.000416
O       7.52048      5.59741     10.41347         0.021269     -0.264497      0.409677
O       7.55574      9.38796      2.37092        -0.032485      0.828930      0.176472
O       7.52377      9.12647     14.56433         0.412659      0.228870      0.200201
O       7.46807      9.54800      6.61010         0.171301     -0.147234     -0.385480
O       7.44309      9.54527     10.70923         0.258446     -0.494779     -0.433773
O      11.23122      1.82360      2.35169         0.334572     -0.213101     -0.009119
O      11.23701      1.99626     14.67091        -0.175582      0.449031      0.347457
O      11.27768     13.24504      2.30365        -0.542216      0.112471      0.098512
O      11.22253     13.08084     14.69597         0.468050     -0.577542     -0.028825
O      11.22383      1.63860      6.43385         0.038172      0.569936      0.075385
O      11.28902     13.24680      6.40196        -0.598273     -0.183530      0.370168
O      11.29195      1.74640     10.69205        -1.466511      0.164530     -0.127634
O      11.20583     13.21756     10.48528         0.649099     -0.330506      0.586781
O      11.17222      5.79687      2.23002         1.513644      0.080031      0.683973
O      11.27272      5.44745     14.69120        -0.786063     -0.357404     -0.065690
O      11.16579      5.86873      6.41310         1.376917     -0.302806      0.182501
O      11.23346      5.71218     10.64989        -0.754184      0.296209      0.085423
O      11.23395      9.19572      2.40903        -0.548023      0.155921     -0.194193
O      11.26858      9.55750     14.69668        -0.902263     -0.103802      0.076863
O      11.24388      9.28429      6.41689         0.507160     -0.368146      0.588143
O      11.22406      9.33455     10.57306        -0.790778     -0.113490      0.127548
O       1.86970      3.73556      2.31905         0.776610      0.773370      0.421077
O       1.68679      3.69181     14.65665        -0.168043      0.681603      0.281026
O       1.74330      0.01476      2.46983         0.064347     -1.478284      0.007647
O       1.99422     14.98940     14.78915         0.126383      0.127991     -0.131240
O      13.01127      3.75346      2.29089        -0.432295      0.097812      0.510690
O      13.37736      3.76097     14.62388        -0.170657      0.051106      0.120257
O      13.14768      0.03448      2.25002         0.548807     -0.788875      0.267989
O      12.90562      0.01256     14.54239         0.292483     -0.740514      0.512883
O       1.91997      3.66155      6.44306        -0.023190      1.223599      0.036404
O       1.80774     14.98019      6.47626        -0.781849      1.049451      0.323580
O      13.03373      3.73637      6.51854        -0.820819     -0.256191     -0.508596
O      13.23126     15.00030      6.39571         0.485104      0.220022      0.496656
O       1.90173      3.74087     10.57216         0.433432      0.266419      0.387577
O       1.76600      0.05546     10.60294         0.171753     -1.468890     -0.032729
O      12.94869      3.76211     10.61716         0.109130     -0.197237      0.012855
O      13.14339     14.95874     10.66109         0.399076     -0.161069     -0.402181
O       1.64740      7.51403      2.34949        -0.062633      0.553048      0.087940
O       2.01107      7.49863     14.56577        -0.047704      0.296271      0.232435
O      13.29949      7.53984      2.40270        -0.142910     -0.492199      0.010038
O      12.99886      7.44723     14.74183        -0.110685      0.548045      0.024734
O       1.66014      7.49086      6.32803         0.294428     -0.069856      0.385566
O      13.27819      7.49760      6.40766        -0.087394     -0.126906      0.590225
O       1.86731      7.43476     10.52948        -0.438467      1.352788      0.410879
O      13.22899      7.47318     10.36064        -0.177543      1.451879      0.468410
O       1.95046     11.25858      2.48417         0.231111     -0.091025     -0.327292
O       1.70683     11.27604     14.69545         0.224688     -1.481596     -0.214188
O      12.90863     11.24451      2.38110         0.290300      0.855430      0.093640
O      13.25220     11.21192     14.71216        -0.071427      1.041441     -0.193337
O       2.14243     11.26173      6.41962        -0.313382      0.431181      0.524610
O      13.05286     11.26072      6.32924        -0.273511      0.522472      0.367559
O       2.01211     11.27558     10.45718        -0.235146     -0.823562      0.611562
O      12.99040     11.25475     10.66917         0.159414     -0.680227      0.008864
O       5.39226      3.72325      2.27132        -0.163812      1.101587      0.948101
O       5.74147      3.76683     14.58934         0.061128     -0.752933      0.089330
O       5.63656     14.98346      2.34305         0.845943     -0.659591      0.235524
O       5.45164     14.95469     14.74919        -0.156016      0.337995     -0.204816
O       5.51767      3.73912      6.42610        -0.082641      0.081072      0.056930
O       5.76809      0.01560      6.58310         0.141353      0.036340     -0.293100
O       5.59801      3.73582     10.70510        -0.180967      0.971247     -0.090943
O       5.63672      0.04145     10.43412         0.613037     -0.627491      0.524287
O       5.82078      7.44670      2.31675        -0.428960     -0.040345      0.120053
O       5.61717      7.51849     14.73736        -0.981269     -0.937412     -0.089976
O       5.74923      7.49413      6.48365         0.013969     -1.167891      0.308777
O       5.76811      7.51848     10.42408        -0.343249     -0.284935      0.482160
O       5.58732     11.15188      2.47694         0.463870      0.991907     -0.446674
O       5.97114     11.23328     14.59493        -0.646319      0.425662     -0.153116
O       5.47561     11.23881      6.42128        -0.104537      0.445416      0.086134
O       5.43657     11.26970     10.66244         0.319539     -0.412611     -0.156983
O       9.60214      3.74446      2.57258        -0.471976      0.362135     -0.480184
O       9.21063      3.68434     14.75085        -0.211810      0.503476     -0.177159
O       9.28081      0.01724      2.40569        -0.295835     -0.103338     -0.451129
O       9.45200      0.00171     14.68618         0.360081     -0.138438      0.408192
O       9.58233      3.72654      6.50856        -0.006947     -0.667766     -0.224755
O       9.24733     14.93992      6.45640        -0.269026      0.987486      0.216186
O       9.55897      3.76243     10.58017        -0.143858     -0.077160     -0.199855
O       9.30837      0.00112     10.68241        -0.238877     -0.134191     -0.398195
O       9.26305      7.49224      2.38431        -0.214604     -0.808702      0.008161
O       9.61924      7.46080     14.63597        -0.216383     -0.008923      0.023272
O       9.17790      7.49491      6.34353        -0.279982     -0.395243      0.678333
O       9.36676      7.55163     10.56381        -0.515463     -1.393395      0.121873
O       9.55937     11.22074      2.19792        -0.210049     -0.478202      0.480692
O       9.20727     11.25406     14.70344         0.071055     -0.459923     -0.064384
O       9.50537     11.22495      6.44517        -0.209027      1.245566      0.527889
O       9.41451     11.24622     10.51154         0.300065      0.023955      0.597803
