  # total energy = -7883.86712013 
CRSYTAL
PRIMVEC
    15.6000000000000000    0.0000000000000000    0.0000000000000000
     0.0000000000000000   15.6000000000000000    0.0000000000000000
     0.0000000000000000    0.0000000000000000    17.640000000000000
PRESSURE
-5.93515 -6.15137 -3.28617 0.008175 -0.078574 0.024415
PRIMCOORD
320 1
Pb       3.82345      3.80551      4.39028         0.226880      0.848155     -0.523102
Pb       3.87907      3.89641     17.60274         0.123517      0.091580     -0.372177
Pb       3.87925     15.57339      4.34635        -0.054150     -0.068883     -0.104926
Pb       3.85251     15.56087     17.57290        -0.237019      0.188525     -0.391304
Pb       0.01684      3.87184      4.40349         0.081147      0.385503     -0.905157
Pb      15.58906      3.90852     17.62799        -0.073285      0.141782     -0.365671
Pb      15.55854     15.56054      4.34831         0.201990     -0.174506     -0.518973
Pb      15.52369      0.01593     17.57437         0.556459     -0.342023     -0.074992
Pb       3.85640      3.91174      8.79758        -0.022553      0.089084     -0.708121
Pb       3.84988      0.01700      8.75485         0.275281     -0.120202     -0.298168
Pb      15.57444      3.89491      8.73684         0.123254      0.195159     -0.190420
Pb       0.00563     15.59581      8.77409        -0.593891     -0.431598     -0.340416
Pb       3.89153      3.76128     13.22230         0.446161      0.326796     -0.517820
Pb       3.84324     15.55984     13.19194         0.315868     -0.351484     -0.216663
Pb      15.57661      3.81718     13.18451         0.149601      0.412211     -0.368614
Pb      15.58406      0.05719     13.16935         0.002013     -0.547850     -0.258422
Pb       3.88272      7.81452      4.40289         0.009070     -0.622750     -0.600965
Pb       3.92987      7.80146     17.59703        -0.489402     -0.149032     -0.233803
Pb      15.59626      7.89693      4.40030         0.213884     -0.815330     -0.258826
Pb       0.00831      7.82047     17.57688         0.010749     -0.252909     -0.268435
Pb       3.89434      7.84554      8.82172        -0.173652     -0.286153     -0.548397
Pb      15.57777      7.79329      8.81518        -0.140091     -0.053962     -0.491555
Pb       3.89129      7.79499     13.16042        -0.191278     -0.065743     -0.196482
Pb       0.01784      7.84283     13.19277         0.242273     -0.314949     -0.687120
Pb       3.88788     11.65691      4.38277         0.238352     -0.040352     -0.763026
Pb       3.90865     11.64935     17.59193        -0.133452      0.420480     -0.597934
Pb      15.53411     11.58523      4.31413         0.182189      0.667014     -0.050047
Pb      15.56650     11.64658     17.55281         0.194869      0.418603     -0.157292
Pb       3.85350     11.62002      8.75939         0.483752      0.130050     -0.107682
Pb      15.55715     11.71076      8.81739        -0.223505      0.319990     -1.110758
Pb       3.87218     11.71154     13.18557        -0.221891      0.108533     -0.529325
Pb      15.54474     11.64391     13.19209         0.483639      0.333532     -0.718138
Pb       7.82692      3.78158      4.43080        -0.285680      0.620376     -0.281972
Pb       7.78920      3.85175     17.58445        -0.203921      0.143963     -0.394971
Pb       7.74901     15.53291      4.34685        -0.155024     -0.055903     -0.399990
Pb       7.77482     15.57185     17.63286         0.022294      0.365367     -0.470573
Pb       7.75225      3.88998      8.76780        -0.174071      0.123679     -0.486705
Pb       7.80117     15.58399      8.73180        -0.155250     -0.055144      0.161809
Pb       7.90741      3.91290     13.14468        -0.722363     -0.119323     -0.424092
Pb       7.78756      0.01661     13.22929        -0.144989     -0.573281     -0.651767
Pb       7.85919      7.78437      4.37702        -0.356835     -0.495968     -0.053671
Pb       7.79154      7.85308     17.62279         0.258914     -0.354413     -0.313111
Pb       7.76660      7.80426      8.76811         0.310124     -0.123741     -0.384323
Pb       7.78142      7.85987     13.12111        -0.112017     -0.056151      0.159455
Pb       7.82066     11.69656      4.39381        -0.253632     -0.033269     -0.523006
Pb       7.78477     11.69062      0.00725        -0.137674      0.031438     -0.595252
Pb       7.81418     11.68967      8.87051        -0.257840     -0.024837     -0.461009
Pb       7.78883     11.71517     13.19895        -0.096748      0.172135     -0.291213
Pb      11.66396      3.88242      4.41726        -0.089487     -0.032139     -0.538681
Pb      11.78503      3.85598     17.60307        -0.381570      0.210044     -0.415768
Pb      11.60047     15.50993      4.40584         0.271143      0.088984     -0.784268
Pb      11.59483     15.53611     17.61471        -0.296742     -0.005319     -0.467812
Pb      11.60961      3.88963      8.77964         0.274509      0.063322     -0.319152
Pb      11.74201      0.02673      8.74434         0.032700     -0.185591     -0.094777
Pb      11.73741      3.89352     13.20915        -0.174917     -0.184104     -0.617584
Pb      11.68818     15.58079     13.18296        -0.261175     -0.221086     -0.443721
Pb      11.72676      7.75649      4.31782        -0.332618     -0.377526      0.149711
Pb      11.71993      7.75419     17.56220        -0.551308      0.090885     -0.267315
Pb      11.63114      7.78580      8.73342        -0.017917     -0.028063      0.026143
Pb      11.71937      7.75939     13.21433        -0.175845      0.303875     -0.869426
Pb      11.69755     11.67014      4.29898        -0.214248      0.017715      0.094648
Pb      11.75567     11.61344     17.51764        -0.451716      0.241558      0.124488
Pb      11.70500     11.62982      8.68348        -0.026446      0.514310     -0.028434
Pb      11.64990     11.64148     13.10089        -0.311324      0.172802     -0.202156
Ti       1.95544      1.95699      2.33785        -0.049925     -0.118552      0.328377
Ti       1.86979      2.00388     15.58366         0.125044     -0.524197      0.770955
Ti       1.92755     13.68956      2.32068        -0.241580     -0.382044      0.016015
Ti       1.91867     13.67017     15.57294         0.384602     -0.336546     -0.013662
Ti      13.66929      1.92705      2.29965        -0.195834     -0.111392      0.952928
Ti      13.56800      1.88651     15.65604         0.106810      0.076692     -0.281957
Ti      13.64080     13.56069      2.30737         0.066383      0.211117      2.073179
Ti      13.61565     13.61361     15.55380         0.249435      0.100131      1.513453
Ti       1.84443      1.90802      6.76485         0.727454      0.539191     -0.613146
Ti       2.00489     13.65251      6.80160        -1.307868      0.104838     -0.507614
Ti      13.64345      1.91776      6.70132        -0.237811      0.121923      0.513735
Ti      13.62874     13.65215      6.65728         0.161585     -0.383790      1.790018
Ti       1.96649      1.90923     11.10236        -0.031892      0.273562      0.497181
Ti       1.89410     13.66350     11.06370         0.102339     -0.897826      2.021656
Ti      13.61088      1.86784     11.18350        -0.304554      0.557016     -1.227546
Ti      13.61724     13.63849     11.15280        -0.129449     -0.241042     -0.436619
Ti       1.88311      5.93358      2.20800         0.465984     -1.030479      1.642797
Ti       1.88366      5.84255     15.57828         0.141505     -0.171001      0.808265
Ti      13.55640      5.80009      2.24499         1.123331     -0.103035      0.710789
Ti      13.56548      5.84468     15.52852         0.431709     -0.219982      2.466194
Ti       1.90214      5.93043      6.73978         0.185388     -0.586329      0.933697
Ti      13.61927      5.83873      6.84361        -0.184257      0.234994     -0.305630
Ti       1.98574      5.75509     11.14964        -0.479201      1.124914     -0.288729
Ti      13.67125      5.83659     11.19849        -0.145715      0.462496     -0.056850
Ti       1.91944      9.78335      2.34623         0.325672     -0.561184     -0.538229
Ti       1.88339      9.74063     15.55500         0.514440      0.466268      0.051176
Ti      13.54998      9.65776      2.41779         0.778616      0.369865      0.883258
Ti      13.60380      9.72236     15.54219        -0.315876      0.015597      1.428491
Ti       1.97176      9.75892      6.76341        -0.563290     -0.431508      0.104220
Ti      13.60673      9.70079      6.73265         0.227267      0.191193      1.631006
Ti       1.91331      9.69056     11.08676         0.441674      0.330308      1.397413
Ti      13.61127      9.74286     11.15613        -0.008232     -0.359292      0.434006
Ti       5.82991      1.96185      2.38197         0.093278      0.069238     -0.342972
Ti       5.78470      1.95895     15.47544         0.108627      0.006263      0.848473
Ti       5.79973     13.61596      2.34332         0.474029     -0.459280      0.155804
Ti       5.89190     13.68754     15.61280        -0.947096     -0.264385     -1.794642
Ti       5.80064      1.89181      6.77366         0.150848      0.240415      0.203059
Ti       5.84516     13.61352      6.76770        -0.013965     -0.027359      0.760486
Ti       5.89341      1.90786     11.13095        -0.304912      0.589467      0.662648
Ti       5.75287     13.66242     11.12435         0.816440     -0.300298      0.117575
Ti       5.84919      5.80066      2.30460        -0.771243     -0.130774      3.251906
Ti       5.81872      5.86490     15.62501        -0.157207     -0.170999      0.590360
Ti       5.72025      5.85323      6.76533         0.482942     -0.741879     -1.037126
Ti       5.81355      5.89412     11.10773         0.391549     -0.866925      2.016724
Ti       5.87520      9.67637      2.32847        -0.560927      0.442809      1.007420
Ti       5.77402      9.70604     15.56896         0.946866      0.500266      0.282346
Ti       5.89887      9.72564      6.75791        -0.414553      0.193956      0.626571
Ti       5.81155      9.73179     11.19413         0.081246      0.776647     -0.652426
Ti       9.74866      1.95405      2.38771        -0.012570     -0.299157     -0.128158
Ti       9.68326      1.94296     15.53748        -0.073297     -0.418833     -0.745888
Ti       9.76836     13.62561      2.27793        -0.207548      0.007011      0.004043
Ti       9.73182     13.65125     15.57195         0.127365     -0.294565      0.591775
Ti       9.71874      1.91971      6.79344         0.096353      0.593185      0.224835
Ti       9.69719     13.63270      6.76434         0.694017     -0.224322      1.208725
Ti       9.75404      1.89422     11.16065        -0.228506     -0.599348     -0.313700
Ti       9.70311     13.60055     11.09244         0.337075      0.147101      1.219095
Ti       9.67654      5.84749      2.31765        -0.109661     -0.474672      0.975731
Ti       9.63848      5.80738     15.49107         0.307863      0.257981      4.454545
Ti       9.65257      5.89119      6.75577         0.143804      0.094840      0.714691
Ti       9.70445      5.84046     11.13103        -0.278530      0.496874      0.054898
Ti       9.70288      9.74188      2.35951         0.437200     -0.390351      0.162805
Ti       9.65198      9.72729     15.61037         0.597395      0.139057     -0.910166
Ti       9.74191      9.79099      6.74705        -0.068182     -0.754627     -0.206080
Ti       9.70455      9.69139     11.18861         0.195809      0.032188      0.259949
O       1.94209      1.85196      0.58715         0.237218      0.367360      0.041253
O       1.75263      2.06681     13.82622         0.237086     -0.233800     -0.433578
O       1.83620     13.64429      0.56639         0.253098      0.117689      0.291664
O       2.09268     13.62085     13.81138        -0.348671      0.066584      0.191990
O      13.62845      2.09971      0.53845        -0.226693     -0.472183      0.634843
O      13.52249      1.83862     13.85975         0.318920      0.127615      0.636316
O      13.64192     13.37545      0.62562         0.133537      0.347035     -1.518483
O      13.64721     13.67204     13.86812        -0.103852     -0.093742     -1.648360
O       1.85909      1.93812      4.98010        -0.159624     -0.356817      0.586542
O       1.91378     13.64570      5.04163         0.260536     -0.039617      0.148624
O      13.71644      1.91078      4.91831        -0.008129      0.033225      0.895076
O      13.61913     13.69694      4.92809         0.043597      0.021745     -0.538041
O       1.91644      1.96107      9.36103         0.218817     -0.319372      0.278742
O       1.88462     13.73747      9.34540        -0.058447     -0.118704     -0.613631
O      13.49096      1.94626      9.39964         0.294817     -0.232111      1.250892
O      13.73883     13.69827      9.39759        -0.282854     -0.305658      0.482248
O       1.87701      5.85631      0.45929         0.129405      0.133084     -0.368769
O       1.92747      5.72670     13.86085         0.043249      0.114381     -0.854613
O      13.63032      5.72913      0.47913        -0.384372      0.035665      0.403618
O      13.50277      5.92524     13.83090         0.157759     -0.242916     -1.158859
O       1.93724      6.07760      5.00796        -0.130808     -0.519901      0.093977
O      13.69120      5.87154      5.10505        -0.210880     -0.335764     -0.327807
O       1.93672      5.81505      9.37063        -0.021984      0.143963      0.805633
O      13.66402      5.96092      9.44851         0.123545     -0.394289      0.404558
O       1.90537      9.67331      0.54622        -0.038922      0.310569      1.131367
O       1.89998      9.79313     13.78873        -0.156852     -0.148152      0.796188
O      13.68217      9.82240      0.73866        -0.174935     -0.151346     -1.879755
O      13.58331      9.71556     13.82765         0.156690      0.022559     -0.807292
O       1.83309      9.58079      4.98584         0.500741      0.608539      0.522864
O      13.51883      9.72923      5.01561         0.292207     -0.263394     -0.914549
O       2.02047      9.49680      9.35354        -0.242403      0.691499     -0.277545
O      13.62522      9.59494      9.42550         0.041599      0.437137     -0.248345
O       5.81813      1.96742      0.59368         0.002665      0.087470      1.076663
O       5.73155      1.98186     13.70510         0.167197      0.048758      0.856982
O       5.98449     13.52265      0.58993        -0.373596      0.355325      0.076059
O       5.89697     13.69652     13.75155        -0.408128      0.035534      1.978884
O       5.85415      1.75298      5.01311        -0.157948      0.349296      0.577454
O       5.90206     13.68142      5.00592        -0.136664     -0.256874      0.034830
O       5.88279      2.01256      9.36911        -0.020040     -0.425516      0.332448
O       5.87377     13.63069      9.34061        -0.243889     -0.014806      1.330174
O       5.84527      5.70565      0.62120         0.057833      0.143918     -1.948039
O       5.79827      5.87511     13.90164         0.015239      0.025296     -0.222975
O       5.66305      5.69574      5.01382        -0.010388      0.419344      0.518979
O       5.88306      5.89384      9.40367        -0.169371      0.110562     -0.963497
O       5.88363      9.83243      0.57682        -0.040792     -0.284760      0.385166
O       5.94172      9.61265     13.82212        -0.535893      0.294877      0.495471
O       5.85064      9.88585      5.04234        -0.080423     -0.212678     -0.486067
O       5.91713      9.76578      9.38299        -0.440295     -0.197745      0.857033
O       9.67194      1.79594      0.62306         0.061972      0.547276      0.603278
O       9.77448      1.92589     13.72280        -0.119347     -0.035548      1.027769
O       9.76602     13.65704      0.50005        -0.320723      0.167644      0.479858
O       9.76974     13.56833     13.83962        -0.198931      0.286706     -0.117049
O       9.83356      2.15320      5.05368        -0.229683     -0.636631     -0.051191
O       9.84766     13.64640      5.04807        -0.371261     -0.123156     -0.687972
O       9.72654      1.83639      9.36450         0.053311      0.414699      1.009846
O       9.73156     13.43173      9.36574        -0.267010      0.451113     -0.471615
O       9.63009      5.68352      0.59357         0.110176      0.313401     -0.134676
O       9.58130      5.73339     13.84045         0.249452      0.223226     -2.786407
O       9.70961      5.87016      5.02225         0.196928     -0.176516     -0.166051
O       9.56945      5.93264      9.38471         0.350040     -0.136757      0.039019
O       9.75152      9.66666      0.60382        -0.224650      0.254415      0.551755
O       9.67905      9.79303     13.79076         0.147813     -0.304124      1.366231
O       9.81723      9.81246      4.97403        -0.215403     -0.029032      0.404020
O       9.69510      9.61060      9.43457        -0.140488      0.394499      0.136373
O       3.91202      1.87690      2.90882         0.249484      0.061282     -0.603289
O       3.80789      2.08756     15.96633         0.247450     -0.383361     -0.316326
O       3.90404     13.65924      2.67686         0.291354     -0.162688      0.201910
O       3.88741     13.68479     16.15936         0.247151     -0.472336     -0.312418
O       0.05366      1.82125      2.67665        -1.127807      0.395439      0.155513
O      15.55126      1.87463     16.19773        -0.242154      0.364014     -0.945822
O       0.03573     13.50627      2.79551        -0.501134      0.281822     -0.060135
O      15.59779     13.59775     15.93233        -0.558709      0.118186      0.164053
O       3.80826      1.78537      7.18312         0.611969      0.555606     -0.176813
O       3.85204     13.77952      7.15613         0.692260     -0.147933      0.122885
O      15.55644      1.93887      7.24397        -0.685310      0.002715     -0.329729
O      15.52519     13.63527      7.22056         0.034003     -0.153883     -0.139274
O       3.91073      1.90316     11.67681        -0.944105      0.310634     -0.667379
O       3.84801     13.61042     11.56638         0.207149      0.158095     -0.300168
O      15.55359      1.84311     11.52386         0.521093      0.494956      0.226340
O      15.56722     13.57866     11.64000         0.460405      0.252024     -0.152059
O       3.87071      5.74440      2.70011        -0.116971      0.432036     -0.106157
O       3.86197      5.87622     16.05017         0.076453     -0.177471      0.052148
O       0.02412      5.70048      2.55520        -0.730283      0.387085      0.457498
O      15.53010      5.78965     15.93817        -0.421309      0.436276     -0.043840
O       3.84717      5.81057      7.30000        -0.554308     -0.093122     -0.146770
O      15.56628      5.88958      7.20289         0.408289     -0.086913      0.204602
O       3.87549      5.93024     11.52208         0.223726     -0.234625      0.108175
O       0.00786      5.81259     11.62816        -0.318545     -0.043220      0.068385
O       3.90258      9.63737      2.80937        -0.255945      0.380651     -0.208218
O       3.89371      9.74315     16.00293        -0.345109     -0.057035     -0.134847
O      15.55828      9.67696      2.82964         0.576833      0.472450     -0.077758
O      15.54398      9.71325     16.02136         0.275291      0.095039     -0.311968
O       3.87186      9.83453      7.16914         0.001089     -0.411295     -0.011592
O      15.59631      9.75854      7.19486        -0.080604     -0.111242     -0.074507
O       3.89722      9.69220     11.61223        -0.232102      0.212364     -0.221315
O      15.59824      9.79391     11.56610        -0.292137     -0.339961      0.028419
O       7.80492      1.96228      2.86252         0.102065     -0.182774     -0.198704
O       7.73365      1.86314     15.88853        -0.086994      0.040387      0.019643
O       7.88568     13.56247      2.81017        -0.481624      0.087696     -0.074487
O       7.73132     13.78460     16.00102         0.412348     -0.340766      0.030429
O       7.79678      1.96739      7.08582        -0.336671      0.003273      0.329382
O       7.76857     13.55430      7.21049         0.184400      0.129437     -0.299829
O       7.76183      1.84084     11.65665         0.389319      0.489924     -0.403889
O       7.81136     13.65659     11.67326        -0.388294     -0.196385     -0.661059
O       7.76891      5.82042      2.79838         0.119034     -0.074974     -0.056473
O       7.74570      5.96200     16.05415         0.399120     -0.369209     -0.236583
O       7.70992      5.94620      7.04309         0.490006     -0.462370      0.547769
O       7.78690      5.99772     11.52765        -0.524755     -0.733803      0.305866
O       7.78110      9.69048      2.87842         0.061400      0.498341     -0.549866
O       7.79533      9.64487     16.07411        -0.187387      0.392670     -0.187598
O       7.78598      9.76563      7.13349        -0.489631     -0.000384      0.055289
O       7.77706      9.77440     11.64780        -0.032974     -0.168593     -0.353825
O      11.67234      1.95105      2.81697         0.347547     -0.070035     -0.299813
O      11.59829      1.87492     16.08116         0.575007      0.308763     -0.177336
O      11.68476     13.61256      2.67197         0.051174      0.024010      0.397718
O      11.64220     13.70220     15.93412         0.464813     -0.403215      0.304451
O      11.68177      1.89368      7.11574         0.149878      0.174993      0.164982
O      11.68481     13.62260      7.11221        -0.186033      0.113865      0.262489
O      11.66172      1.88059     11.58396        -0.082488      0.265703      0.138589
O      11.67924     13.63480     11.51258         0.014757      0.012572      0.270319
O      11.67283      5.88794      2.64091         0.105076     -0.273738      0.154317
O      11.61136      5.77215     15.96487         0.290680      0.037392     -0.141437
O      11.67160      5.89184      7.22461        -0.396139     -0.308711      0.018962
O      11.64456      5.85680     11.53213         0.433456     -0.070710      0.396152
O      11.69149      9.59730      2.79835        -1.001879      0.551494     -0.135963
O      11.67616      9.76660     16.07216         0.303859     -0.124693     -0.344730
O      11.63972      9.72655      7.25580         0.587137     -0.016137     -0.339154
O      11.68732      9.69588     11.62634        -0.016352     -0.072862     -0.048105
O       1.95960      3.84790      2.82704        -0.110446     -0.206008     -0.340554
O       1.79928      3.87592     15.97723         0.308065      0.202675      0.294509
O       2.01770     15.54803      2.77682        -0.415561      0.199697      0.076206
O       1.89984     15.58378     15.93884         0.156437      0.578926      0.208807
O      13.63988      3.88729      2.83673        -0.074027     -0.329409     -0.426418
O      13.59383      3.81764     15.98114        -0.107675      0.473784     -0.276799
O      13.64040     15.51586      2.68500         0.091952      0.655993     -0.205583
O      13.64284     15.55121     16.04251        -0.221579      0.124464      0.153752
O       1.83448      3.86589      7.07590         0.289558      0.157919      0.273901
O       1.80050     15.58845      7.22133         0.281168      0.063388     -0.062501
O      13.60492      3.89350      7.34827         0.025671     -0.462903     -0.786970
O      13.61069      0.00450      7.25445         0.164405      0.262016     -0.782538
O       1.95438      3.89584     11.42252        -0.017826     -1.161537      0.646434
O       1.96697     15.55401     11.64984        -0.323360      0.534308     -0.556447
O      13.59145      3.85833     11.72120         0.146524      0.087473     -0.376619
O      13.63139     15.54873     11.56055        -0.064662      0.526464      0.367721
O       1.88068      7.74687      2.76737         0.105472      0.739528     -0.296923
O       1.90058      7.79641     15.97042        -0.077957      0.224272     -0.077204
O      13.58943      7.73495      2.78080         0.562224     -0.458009     -0.206681
O      13.58150      7.81819     16.07899         0.040848     -0.541521     -0.504991
O       2.01259      7.80639      7.22815        -0.220704      0.309485     -0.169582
O      13.59689      7.77995      7.20171         0.200823      0.665329     -0.018508
O       1.95238      7.79452     11.67272        -0.481530     -0.023648     -0.198231
O      13.70443      7.80782     11.69997        -0.320807     -0.380466     -0.058087
O       2.06242     11.67489      2.72411        -0.416485     -0.621727      0.169022
O       1.95230     11.72814     15.88969        -0.046915     -1.091772      0.569512
O      13.58692     11.61753      2.86450         0.181764      0.272980      0.034161
O      13.64665     11.65498     16.01752        -0.154708      0.083591     -0.285047
O       1.97374     11.73545      7.22527        -0.216414     -0.563058      0.025530
O      13.59775     11.67956      7.09339         0.086727     -0.159070      0.249773
O       1.93958     11.63716     11.44261         0.067734      0.512659      0.005970
O      13.57611     11.68455     11.51530         0.287972     -0.340503      0.260096
O       5.83812      3.86301      2.88293         0.017378     -0.713302     -0.465626
O       5.84034      3.90574     16.04045         0.051802     -0.108059     -0.290498
O       5.93671     15.52926      2.77431        -0.132980      0.290099     -0.127371
O       5.68574      0.05399     15.96815         0.307377      0.028316     -0.055582
O       5.79109      3.89909      7.26342        -0.031917     -0.862830     -0.161020
O       5.91057     15.57354      7.33201        -0.310338      0.299948     -0.617637
O       5.82657      3.93091     11.49936         0.067915      0.016872      0.223797
O       5.77533      0.00490     11.56263         0.126177     -0.586663     -0.222750
O       5.83939      7.74294      2.80299         0.124132      0.523363     -0.435289
O       5.83771      7.84892     16.19915        -0.302155     -0.462053     -0.537446
O       5.70068      7.75007      7.05961         0.205291      1.426347      0.277226
O       5.80921      7.86335     11.69140         0.163793     -0.724939     -0.557445
O       5.80903     11.65981      2.78811         0.133226      0.005221      0.204268
O       5.87451     11.70804     15.95075        -0.035700     -0.168233      0.126029
O       5.71422     11.74744      7.27154         0.380745     -0.280321     -0.479977
O       5.79577     11.68095     11.66107         0.131181      0.203450     -0.368335
O       9.75428      3.93744      2.90407         0.005143     -0.553970     -0.501862
O       9.57302      3.83602     15.89482         0.278785      0.320251      0.071783
O       9.75253     15.55062      2.81242         0.047444      0.408661     -0.013829
O       9.71286      0.00308     16.05718        -0.038462     -0.118791     -0.235731
O       9.73686      3.92903      7.34581        -0.190904     -0.226852     -0.631785
O       9.65310     15.57025      7.20512         0.308463     -0.165345     -0.446530
O       9.66394      3.89737     11.56692         0.145838     -0.351278     -0.171729
O       9.72868     15.53903     11.53544         0.059183      0.532515      0.076644
O       9.64673      7.76801      2.87776         0.454431      0.229627     -0.581730
O       9.82331      7.83027     16.11957        -0.414572     -0.648858     -0.715612
O       9.67935      7.84991      7.18287         0.102019     -0.420207     -0.082243
O       9.70578      7.77486     11.61644         0.330321      0.251941      0.161124
O       9.78485     11.67332      2.74648        -0.077837     -0.430158     -0.140857
O       9.66141     11.68180     16.04678        -0.012616      0.193118     -0.139825
O       9.70338     11.62478      7.28604         0.179723      0.741914     -0.371605
O       9.76253     11.66222     11.62391        -0.151144      0.055839     -0.264317
