  # total energy = -7865.38524787 
CRSYTAL
PRIMVEC
    15.010000000000000    0.0000000000000000    0.0000000000000000
     0.0000000000000000   15.010000000000000    0.0000000000000000
     0.0000000000000000    0.0000000000000000    16.400000000000000
PRESSURE
16.844 17.2832 8.70453 0.017112 0.150435 -0.061559
PRIMCOORD
320 1
Pb       3.57467      3.68525      4.04146         0.638290      0.235964      0.574226
Pb       3.84498      3.68539     16.36649        -0.707260      0.392287      0.181150
Pb       3.77515     14.94689      4.13756         0.082049      0.405464     -0.080707
Pb       3.70779      0.03903     16.37578        -0.020536     -0.259085      0.083150
Pb      14.99982      3.75434      4.18656         0.159116     -0.251228     -0.248497
Pb      14.99650      3.86815      0.07325        -0.209082     -0.465433      0.077770
Pb       0.00787     14.95137      4.14269         0.183924      0.478195     -0.216903
Pb      14.95343      0.03510     16.29016         0.370157      0.016735      0.309389
Pb       3.89623      3.67418      8.19298        -0.910158      0.528592      0.077469
Pb       3.86168     14.96169      8.35834        -0.937637      0.231163     -1.001723
Pb       0.09269      3.66448      8.09411         0.253647      0.347269      0.047969
Pb       0.14727      0.03975      8.30268        -0.074769     -0.051140     -0.031439
Pb       3.87792      3.77633     12.36220         0.231683     -0.057306     -0.442793
Pb       3.79936      0.05032     12.27218        -0.310597     -0.291435      0.484146
Pb      14.99487      3.70020     12.26280        -0.190177      0.255176      0.778525
Pb      14.91194     15.00886     12.26780         0.320106     -0.278289      0.348095
Pb       3.56680      7.65319      4.12867         0.638325     -0.978906      0.183985
Pb       3.75438      7.50417     16.36049        -0.122589     -0.311981      0.666792
Pb      14.85810      7.47330      4.12279         0.363450     -0.289498     -0.281593
Pb      14.99295      7.47495      0.03696        -0.366633     -0.421565     -0.418610
Pb       3.66405      7.48744      8.33533         0.034110      0.255862     -0.634133
Pb      14.95522      7.44935      8.09656         0.303065     -0.099548      0.600346
Pb       3.81572      7.39735     12.38649        -0.875026      0.682178     -0.533920
Pb       0.13259      7.49604     12.30319        -0.423714      0.185538     -0.166442
Pb       3.63178     11.26411      3.91457         0.149324      0.374348      1.372149
Pb       3.68442     11.28877      0.10225         0.542080      0.172163     -0.644549
Pb      14.80520     11.25500      4.19580         1.060199      0.404282     -0.435722
Pb      14.97621     11.14801     16.36448        -0.474024      0.816986      0.168806
Pb       3.59930     11.15409      8.25243         0.037453     -0.262278     -0.306974
Pb      14.89592     11.16318      8.23991         0.541459      0.141932      0.067005
Pb       3.73004     11.18861     12.45067        -0.053099     -0.125932     -0.508757
Pb      14.98829     11.18743     12.29867        -0.048752     -0.134318     -0.358810
Pb       7.46016      3.74529      4.25801         0.097999     -0.466643     -0.507133
Pb       7.47272      3.80068      0.07414         0.106582     -0.388137     -0.410703
Pb       7.42535      0.05261      4.17101         0.149097      0.374354      0.003990
Pb       7.55808      0.03578      0.03408         0.094271     -0.269113     -0.140203
Pb       7.60613      3.84444      8.28683        -0.076734     -0.324844     -0.445136
Pb       7.41209     14.75479      8.36873         1.103462      0.960060     -1.061189
Pb       7.59115      3.59986     12.36587        -0.000198      0.701786     -0.442282
Pb       7.50075      0.02828     12.28794         0.289331     -0.409169      0.774924
Pb       7.39669      7.49058      4.16082         0.365846      0.000563     -0.108733
Pb       7.46553      7.46875      0.12780         0.274934      0.093999     -0.037691
Pb       7.49674      7.55291      8.13717        -0.246009     -0.106493      0.049279
Pb       7.56046      7.36263     12.33227         0.179608      0.276725     -0.569024
Pb       7.18264     11.29243      4.12683         1.357251     -0.261377      0.487658
Pb       7.45470     11.26054      0.08415         0.020873      0.328734     -0.905394
Pb       7.38364     11.12077      8.34423         0.210318      0.211759     -0.396219
Pb       7.52442     11.17994     12.51256        -0.162635      0.140342     -0.189841
Pb      11.44188      3.70367      4.17651        -0.666551     -0.029874     -0.364836
Pb      11.22694      3.81878      0.04340         0.301078     -0.149652     -0.185209
Pb      11.27390      0.02969      4.19789        -0.365480     -0.013001     -0.107008
Pb      11.23875      0.04653     16.36615        -0.293015     -0.332461      0.258092
Pb      11.34321      3.77254      8.22710         0.180169     -0.397237      0.162014
Pb      11.34614     14.92980      8.23203        -0.023602      0.228964      0.169001
Pb      11.33854      3.75841     12.33608        -0.507013     -0.209801     -0.492579
Pb      11.27356     14.88538     12.26330         0.213066      0.432153     -0.291068
Pb      11.03299      7.42710      4.14721         0.279639      0.179051     -0.952544
Pb      11.20956      7.47130      0.03100         0.324457     -0.391267      0.513488
Pb      11.19786      7.52441      8.21074         0.078871     -0.232994     -0.392890
Pb      11.23187      7.48559     12.42781         0.560121     -0.234186     -0.432975
Pb      11.09985     11.35204      4.24100        -0.126543     -0.265880     -0.881035
Pb      11.10027     11.34877      0.05887         0.233053     -0.307817      0.127153
Pb      11.13786     11.19546      8.19539         0.237104      0.309455      0.106569
Pb      11.26476     11.22623     12.37992         0.007504     -0.166210      0.187218
Ti       1.84950      1.82589      2.11786        -0.026913      0.547011      0.212836
Ti       1.88381      1.83324     14.29379        -0.350613      1.088058      0.582505
Ti       1.81184     13.17417      2.05468        -0.766773      0.289235      0.780601
Ti       1.84877     13.14212     14.21616        -0.078873      0.145152      1.714815
Ti      13.09876      1.79514      2.00937         0.964185      1.907633      0.076164
Ti      13.10875      1.85902     14.41110         0.625204      0.475809     -0.608887
Ti      13.07287     13.19775      2.11961         0.396602     -1.064370     -0.111944
Ti      13.11026     13.03722     14.44674         0.408153      0.759300     -0.985963
Ti       2.00001      1.76242      6.14557        -1.446532      1.348787      0.077326
Ti       1.86490     13.12653      6.26711         0.046488     -0.495270      0.306444
Ti      13.18391      1.76656      6.22074         0.599804      0.483813      0.964913
Ti      13.15792     13.07304      6.17302        -0.034434      0.558149      1.096525
Ti       1.98439      1.98138     10.39517         0.195804     -0.818338     -1.688319
Ti       1.89038     13.13655     10.32971        -0.655397     -0.268852     -0.173887
Ti      13.26446      1.85557     10.32440        -1.926048      0.273290     -1.438015
Ti      13.11367     13.06813     10.29659         0.186591     -0.265742     -0.721590
Ti       1.86662      5.62602      2.04989        -0.533162     -0.246327      0.681913
Ti       1.90690      5.52775     14.29682        -1.192605      0.786802      1.003280
Ti      13.11587      5.67224      2.20568        -0.856352     -1.132857     -0.898133
Ti      13.14351      5.57402     14.26405         0.807747      0.567710      1.356963
Ti       1.97403      5.62547      6.13347        -0.958529     -0.997579     -0.037721
Ti      13.14126      5.62555      6.21367         0.227262     -0.504957     -0.094156
Ti       1.85664      5.58791     10.30211         0.632855      0.755283     -1.302363
Ti      13.19031      5.61766     10.27999        -0.831581      0.696887     -0.752193
Ti       1.83508      9.41619      2.09422         0.142785     -0.444808      0.480071
Ti       1.85718      9.37395     14.47414         0.473714     -0.499751     -1.526527
Ti      13.15088      9.47190      2.14501        -1.846954     -1.480840     -1.081899
Ti      13.13250      9.30517     14.37139        -0.144846     -0.558608     -0.209793
Ti       1.75732      9.37052      6.07692         1.441331      0.198765      1.476691
Ti      13.05723      9.35413      6.13715         0.057435     -0.461392      1.976695
Ti       1.81314      9.39303     10.32564        -0.009729     -0.653318     -0.019907
Ti      13.03583      9.31466     10.24843         1.104862     -0.157281     -0.007428
Ti       5.63112      1.86421      2.04375        -0.364927      0.421471      1.751872
Ti       5.65161      1.86192     14.38087         0.514960      0.321591      0.319901
Ti       5.62198     13.18046      2.08539        -0.558490     -0.567908     -0.889267
Ti       5.59100     13.16356     14.34078         1.162976     -0.252007      1.256524
Ti       5.70098      1.92451      6.20888         0.477314     -1.632572     -0.712813
Ti       5.55083     13.12448      6.21579         0.552084      0.364327     -0.381552
Ti       5.74076      1.83471     10.23703        -0.426341      1.677423      0.446903
Ti       5.55950     13.14147     10.35263         0.803043     -2.244306      1.070640
Ti       5.54713      5.59566      2.14017         0.110843      0.017765     -0.113590
Ti       5.62694      5.70450     14.37866         0.784434     -1.938281     -0.086589
Ti       5.60505      5.62989      6.14508         0.885066      0.492252      0.200651
Ti       5.62429      5.62155     10.26290         0.141138     -0.340686      0.668389
Ti       5.57366      9.30599      2.09552         0.425484      0.089535     -0.936660
Ti       5.59962      9.36057     14.36292         0.896232      1.455065      1.245566
Ti       5.50156      9.39788      6.19735        -0.274934     -0.662675      1.556350
Ti       5.57378      9.38833     10.31194        -0.014715      0.325860     -0.734786
Ti       9.37795      1.86291      2.11650        -0.048361      0.181023      0.141033
Ti       9.42205      1.75027     14.28321        -0.648633      1.902683      1.019507
Ti       9.28900     13.16788      2.11857         0.666050     -0.476421     -0.893844
Ti       9.41246     13.12789     14.30420        -2.265480     -1.139450      1.062554
Ti       9.49112      1.76923      6.22460        -1.293244      0.858904     -0.318344
Ti       9.38333     13.10359      6.23887        -0.922062     -0.371419      0.034167
Ti       9.48532      1.84116     10.19095         0.707914      0.640351      0.380878
Ti       9.30529     13.07572     10.36045         0.792784      0.128666     -0.704856
Ti       9.28075      5.51645      2.11625         0.974930      1.173235     -0.202862
Ti       9.35774      5.50555     14.37123         0.611985     -0.023412      0.091893
Ti       9.39459      5.54159      6.19933        -1.078655      1.377231      0.040769
Ti       9.39659      5.64107     10.21859         0.345327     -0.589041      1.052847
Ti       9.34469      9.37944      2.06815         0.615056     -0.630383      1.097749
Ti       9.37854      9.25195     14.46118        -0.608066      1.492040     -0.223953
Ti       9.31504      9.40223      6.14408        -0.079464     -1.028350     -0.843120
Ti       9.36159      9.35125     10.42601        -0.673319      0.072436      1.013569
O       1.96872      1.86323      0.32106         0.127978     -0.271068     -1.039376
O       1.86238      2.01200     12.49359         0.457997     -0.557948     -0.233702
O       1.72796     13.23185      0.25548         0.656104     -0.173629      0.145548
O       1.83270     13.12085     12.47145         0.206524      0.046378     -0.552048
O      13.06847      1.94154      0.15279        -0.015869     -0.673767      0.807342
O      13.13958      1.86991     12.50315         0.293937     -0.133082      0.212491
O      13.20666     13.17461      0.32493        -0.329726     -0.040986     -1.665964
O      13.14866     13.14266     12.55988        -0.352220     -0.403507      0.220101
O       1.72424      1.90600      4.32193         0.580389     -0.802028      0.818243
O       1.75201     13.15772      4.48159         0.289216      0.127011     -0.574141
O      13.05594      1.92310      4.44169         0.374795     -0.506707     -1.181741
O      13.10592     13.07006      4.34911         0.130131     -0.199837     -0.346730
O       1.91002      1.88415      8.51750         0.128259      0.184372     -0.158895
O       1.90674     13.07448      8.50923         0.169115      0.463402      0.227564
O      13.14900      1.83122      8.41435         0.354443     -0.016022      1.140302
O      13.04616     13.14341      8.44771         0.290133     -0.605183      0.856261
O       1.82907      5.64019      0.24172         0.087065     -0.120590     -0.543446
O       1.95763      5.58350     12.49746        -0.226475      0.080011     -0.158273
O      13.06066      5.61136      0.34851        -0.013119      0.070095     -0.596780
O      13.30726      5.58751     12.51515        -0.495984      0.145163     -1.331966
O       1.91899      5.52545      4.26795        -0.307465      0.873392      0.580692
O      13.17094      5.63055      4.31167        -0.262079      0.150812      0.777297
O       1.95925      5.49890      8.44665        -0.313261      0.260821      0.022716
O      13.26179      5.56089      8.43523        -0.645239      0.324407     -0.186310
O       1.91515      9.45298      0.28485        -0.324528     -0.067700     -1.342905
O       2.00316      9.42409     12.56896        -0.544140      0.026652      0.931625
O      13.11130      9.36304      0.26803         0.285587     -0.090473      0.301282
O      13.08421      9.38205     12.53334         0.043576      0.101965      0.669551
O       1.82141      9.41319      4.27599         0.247731     -0.369796     -0.080317
O      13.17044      9.40559      4.38456         0.015980     -0.237350     -1.753675
O       1.83867      9.35296      8.51584        -0.197415     -0.025868     -0.383555
O      13.04783      9.25451      8.39089         0.461730      0.631100      1.016849
O       5.60568      2.00796      0.25172        -0.105377     -0.798370     -1.038656
O       5.56763      1.95720     12.57250         0.209974     -0.816442     -0.838171
O       5.62237     13.19847      0.24827        -0.168021     -0.127600      0.082847
O       5.58591     13.14704     12.55133         0.228156      0.397147     -0.458588
O       5.69622      1.84883      4.37116         0.283673     -0.069830      0.171399
O       5.60294     13.01091      4.34021         0.064467      0.664545      0.310693
O       5.77373      1.78185      8.44287        -0.460611      0.344308     -0.015216
O       5.71687     13.18487      8.53688        -0.627189     -0.579698     -0.614893
O       5.71653      5.68492      0.25024        -0.466789     -0.117411     -0.038056
O       5.74217      5.57146     12.51861        -0.543490      0.470363      0.510818
O       5.65138      5.65616      4.31074        -0.186511     -0.179562      0.195040
O       5.59746      5.56150      8.49454         0.145473     -0.029475     -0.628236
O       5.60043      9.26024      0.25663        -0.148715      0.224602     -0.287260
O       5.60538      9.51280     12.58389        -0.326691     -0.602945     -0.734290
O       5.46684      9.31192      4.41122         0.331339      0.286377     -1.501417
O       5.54346      9.35044      8.41593         0.335935      0.526677      1.103077
O       9.37840      1.89008      0.26605         0.127631     -0.118431      0.226666
O       9.50884      1.93876     12.52040        -0.366093     -0.505265     -0.962386
O       9.22545     13.19737      0.17279         0.571057     -0.243011      1.393311
O       9.25980     13.19351     12.51462         0.538838     -0.079202     -0.930452
O       9.42008      1.90287      4.34060        -0.005297     -0.549568      0.891588
O       9.36993     13.04396      4.39235        -0.091530      0.044850     -0.537098
O       9.50997      1.86670      8.40916        -0.365106      0.038625     -0.425132
O       9.35551     13.00665      8.46747        -0.031792      0.320740      0.517324
O       9.41495      5.58977      0.18868        -0.265734     -0.501228      0.678408
O       9.29689      5.46365     12.53283         0.130385      0.687243      0.197581
O       9.26779      5.68164      4.36264        -0.025994      0.155875      0.168526
O       9.43006      5.69273      8.42563        -0.299042     -0.286320     -0.275546
O       9.31185      9.32038      0.25477         0.539740      0.321969     -0.848928
O       9.28337      9.37781     12.60059         0.579168     -0.155961      0.328087
O       9.21591      9.31951      4.30647         0.823971      0.165664      0.071702
O       9.37963      9.31901      8.67919         0.099597      0.346635     -1.967852
O       3.76750      1.95670      2.58436        -0.208211     -0.530592     -1.271080
O       3.79305      1.62042     14.59050        -0.634211     -0.347439      0.375812
O       3.75988     13.01371      2.43226        -1.120055      0.291931     -0.702779
O       3.71746     13.54322     14.59109         0.196083     -0.595262     -0.107838
O      14.96830      1.57205      2.23885        -0.549062     -0.201221      0.055232
O       0.05622      2.08417     14.68468        -0.599147     -0.118625     -0.151871
O      14.94698     13.34522      2.38757         1.022900     -0.041397      0.021374
O      14.97223     12.86510     14.48609         0.455327      0.374271      0.669717
O       3.80015      2.06448      6.35188         0.226591     -0.322072      0.151424
O       3.75438     13.06129      6.53440        -0.495435     -0.397124      0.075498
O       0.05340      1.52607      6.43756        -0.273567      0.537142      0.093292
O       0.01329     13.29199      6.65317        -0.449609     -0.092792     -0.734179
O       3.81964      2.34979     10.34495         0.251062     -1.033590      0.712247
O       3.74649     12.93601     10.70774        -0.165505     -0.139899     -0.619392
O       0.07886      1.59256     10.46486        -1.078093      0.177327      0.455830
O       0.02445     13.39700     10.60718        -0.922461     -0.046272     -0.508349
O       3.67490      5.38617      2.17968         0.718360     -0.241826      0.394348
O       3.77332      5.89771     14.60635        -0.218739     -0.082246     -0.023329
O      14.97854      5.65390      2.22849         0.566303      1.130287      0.555320
O       0.01893      5.33064     14.63906         0.830069      0.047673     -0.026260
O       3.81601      5.49330      6.36489        -0.960321     -0.406072      0.248729
O      15.00163      5.74055      6.40833         0.635886     -0.216373     -0.344541
O       3.74624      5.28298     10.42753         0.375530      0.421270      0.679620
O       0.00306      5.93587     10.46615         0.672654     -0.009387      0.318937
O       3.72960      9.66391      2.21655        -0.415803     -0.357646      0.457399
O       3.75270      9.10871     14.67554        -0.108371      0.508878     -0.162195
O       0.03517      9.21225      2.32087        -1.360220     -0.077400      0.088591
O      14.99408      9.55957     14.61088         0.639640      0.551781      0.269630
O       3.62663      9.35987      6.60938         0.371181      0.257875     -0.823078
O      14.99871      9.19330      6.42562        -0.698922     -0.030161     -0.083376
O       3.66238      9.74922     10.48639         1.465963     -0.073318      0.268974
O      14.97844      9.16812     10.58852        -0.454234     -0.172487      0.061625
O       7.46292      1.76022      2.33108         0.806223     -0.520379      0.134783
O       7.52795      2.11782     14.53463         0.387855      0.464486      0.363788
O       7.43231     13.35369      2.30304         1.437924     -0.632367      0.552403
O       7.53174     12.81470     14.51344        -1.198194      0.202242      0.435026
O       7.55183      1.74768      6.43058         1.323272     -0.401086     -0.043797
O       7.48436     13.04523      6.46589         0.135686      0.512675     -0.020025
O       7.58724      1.53589     10.51666        -0.668165      0.602314     -0.142461
O       7.49334     13.49690     10.57167        -0.749870     -0.025034     -0.432191
O       7.42079      5.76608      2.37548         0.134516      0.358269     -0.336298
O       7.51061      5.37316     14.60082        -0.265305     -0.137034      0.114264
O       7.50758      5.78103      6.58584         0.045684     -0.676070     -0.563930
O       7.53451      5.89300     10.41311        -0.836460      0.282380      0.196799
O       7.42695      9.08662      2.20031         0.379066      0.317910      0.678214
O       7.53605      9.66656     14.61873        -1.093387     -0.511045      0.226869
O       7.48785      9.32868      6.33249        -1.510114      0.215245      0.703866
O       7.44057      9.13606     10.50320        -0.007839     -0.353268      0.344955
O      11.25618      2.05529      2.40661        -0.176023      0.138374     -0.385228
O      11.24145      1.62402     14.64200         0.628413     -0.087606     -0.130195
O      11.24311     13.04027      2.28258        -1.158299     -0.741826      0.268197
O      11.19296     13.38720     14.59895         1.670351     -0.331599      0.419339
O      11.34879      1.80798      6.54296        -1.201221      1.275634     -0.276281
O      11.30590     12.87044      6.39163        -0.683241     -0.295546      0.153779
O      11.34004      2.16558     10.56219        -0.126892     -0.183968     -0.448239
O      11.21491     12.84913     10.67715         0.488988     -0.053283     -0.374604
O      11.11605      5.46871      2.48285         1.191849     -0.430681     -0.191744
O      11.33900      5.84871     14.47366        -1.333140      0.208974      0.450117
O      11.18668      5.63407      6.52771         1.783796     -0.026111     -0.450966
O      11.24852      5.36394     10.49827         0.841164      0.283217      0.156779
O      11.25094      9.47830      2.40133        -0.272330      0.200423     -0.094675
O      11.29073      9.01813     14.60267        -0.466818      0.433582      0.077917
O      11.26527      9.44648      6.51544        -0.798585     -0.075575     -0.519738
O      11.23591      9.71085     10.63359        -0.043994     -0.288496     -0.247427
O       1.60453      3.64144      2.42062         0.597765      1.454770     -0.507443
O       2.20763      3.73786     14.51023         0.070171     -0.301370      0.634489
O       2.01376      0.01432      2.53739         0.092120     -1.632379     -0.450581
O       1.63167      0.01636     14.50803        -0.114591     -0.379608      0.223237
O      13.36660      3.73003      2.36611        -0.964517     -1.047060      0.065482
O      12.93709      3.72203     14.55836        -0.273211     -0.102342      0.341339
O      12.83739     14.99695      2.41168         0.471222      1.080335     -0.118626
O      13.24225     14.98614     14.56923         0.566191     -0.044451      0.456670
O       1.78632      3.70190      6.29785        -0.357290      0.126115      0.581522
O       2.16446     14.98522      6.59504        -0.510024      0.021773     -0.344236
O      13.25909      3.75246      6.40561        -0.398627     -0.640461      0.055036
O      12.83978     14.90451      6.32211         0.961181      0.265097      0.013909
O       1.50345      3.77876     10.53455         0.102767     -0.133461     -0.083835
O       2.17804      0.10072     10.59195        -0.012246     -1.087523     -0.197777
O      13.45240      3.82802     10.45885         0.068435     -2.557302      0.316764
O      12.82139     14.95755     10.41451         0.626521      0.604912      0.683524
O       2.02411      7.52446      2.38113        -0.025793     -0.304768     -0.484013
O       1.61003      7.51673     14.53077         0.353032     -0.358678      0.553922
O      12.89043      7.48239      2.37473         0.695288      0.839306      0.349978
O      13.53801      7.43820     14.53826        -0.617953      0.673012      0.353339
O       1.97051      7.43641      6.44746        -0.091875      0.719730     -0.340936
O      13.06022      7.46169      6.45844        -0.183601      0.667962     -0.263462
O       2.08448      7.49533     10.62662         0.494621     -0.196449     -0.038095
O      12.93680      7.49158     10.51445        -0.689764      0.267792      0.391186
O       1.72372     11.30196      2.45918        -0.273375      0.338404     -0.665280
O       2.08850     11.31875     14.57065         0.340648     -0.640740      0.628193
O      13.30537     11.26133      2.29427         0.083068      0.485528      0.319862
O      12.93203     11.21851     14.69663        -0.426899     -0.211307      0.101071
O       1.71482     11.20967      6.42462         0.138506      0.252638      0.206398
O      13.32231     11.19374      6.41740         0.083475      0.124063     -0.000399
O       1.55077     11.26839     10.42606         0.145005      0.627521      0.585542
O      13.46349     11.16934     10.45903        -0.555733      1.429182      0.049653
O       5.72631      3.71413      2.30092         0.093182      0.967402      0.209880
O       5.35389      3.76431     14.61621         0.418741      0.300631     -0.037515
O       5.56194     15.00825      2.38313        -0.747979      0.154260      0.153298
O       6.08231      0.01363     14.62063        -1.247796     -0.138601     -0.185851
O       5.87697      3.71732      6.40716        -0.247177      1.538131      0.408396
O       5.50341     14.99690      6.41478         0.263484     -0.293544      0.194331
O       5.90033      3.72835     10.60761         0.526959     -0.086574     -0.693759
O       5.28454     14.99362     10.44532         0.497407      1.403530      0.657658
O       5.27299      7.48652      2.36793         0.080719     -0.229797      0.080027
O       5.84969      7.52537     14.52094         0.367848     -0.076487      0.254139
O       5.48135      7.45692      6.55889         0.364389      0.569287     -0.473573
O       5.24667      7.56368     10.52398         0.408708     -1.183245      0.175114
O       5.77901     11.23037      2.28783        -0.090687      0.120237     -0.013900
O       5.35203     11.29323     14.67730        -0.229625     -0.291839      0.155550
O       5.52868     11.23964      6.40983         0.592792     -0.389852      0.294450
O       5.93755     11.28160     10.55448        -0.406878      0.221710     -0.404512
O       9.10506      3.70668      2.42552         0.183800      0.218315     -0.482631
O       9.73954      3.69218     14.53046        -0.412918      0.322169      0.520842
O       9.50198     14.98582      2.34139         0.003658      0.634465      0.226742
O       9.14389     14.97519     14.57557        -0.231026      0.340339      0.223992
O       9.39816      3.73753      6.39197        -0.336105     -0.641607      0.291916
O       9.66729     14.93007      6.38923        -0.784492     -0.075750      0.079378
O       9.18764      3.76654     10.38270        -0.532353     -0.671513      0.220852
O       9.68818     15.00288     10.44027        -0.015656     -0.276364      0.302914
O       9.49189      7.45416      2.20182         0.004198      0.240137      0.528396
O       9.16632      7.43092     14.64054        -0.017602      0.042489     -0.210856
O       9.37725      7.58184      6.56289         0.600362     -0.709511     -0.359169
O       9.65552      7.48802     10.73621        -0.446690      0.124485     -0.457152
O       9.30084     11.25945      2.23305        -0.698805      0.110088      0.208899
O       9.58160     11.24628     14.64358         0.709333     -0.534924      0.033356
O       9.38918     11.20507      6.47796        -0.166017      0.138993      0.280381
O       8.99268     11.26509     10.58126         0.450813     -0.241818      0.015982
