  # total energy = -7880.27430741 
CRSYTAL
PRIMVEC
    15.6000000000000000    0.0000000000000000    0.0000000000000000
     0.0000000000000000   15.6000000000000000    0.0000000000000000
     0.0000000000000000    0.0000000000000000    17.640000000000000
PRESSURE
-4.53637 -4.59483 -1.32529 -0.127269 0.225634 -0.029946
PRIMCOORD
320 1
Pb       3.81827      3.92269      4.29478         0.378579      0.146764     -0.092085
Pb       3.81601      3.77821     17.55395        -0.072098      0.432024     -0.426678
Pb       4.06980      0.08939      4.34904        -0.416501      0.123361      0.215352
Pb       3.96454     15.49226     17.47959        -0.053930     -0.059808     -0.109998
Pb      15.59732      3.87807      4.33647         0.189167      0.047553     -0.314484
Pb      15.49393      3.88620     17.61126         0.160127      0.138111     -0.354478
Pb      15.57457     15.56896      4.37828        -0.177477      0.212537      0.067247
Pb       0.17528     15.49938     17.49811        -0.424029      0.161841     -0.059581
Pb       3.96422      3.79509      8.70991        -0.265192      0.445122      0.121405
Pb       3.86368     15.54866      8.75224         0.140892     -0.210474     -0.244349
Pb      15.55873      3.83477      8.70169         0.567147     -0.189672      0.142759
Pb       0.03658     15.43345      8.93224        -0.078691      0.419437     -0.616858
Pb       3.76487      4.04039     13.16449        -0.007070     -0.465192     -0.086356
Pb       3.77443     15.54342     13.13696         0.110062      0.394906      0.362853
Pb      15.47643      3.84197     13.13323         0.214943     -0.219636      0.228588
Pb      15.59631     15.58858     13.11455         0.206515      0.310517     -0.114376
Pb       3.80642      7.72943      4.30757         0.568472      0.393890      0.390863
Pb       3.73114      7.73435     17.60304         0.463223     -0.073124     -0.144931
Pb      15.47091      7.81098      4.42964         0.331840      0.051249     -0.475013
Pb      15.50170      7.73728      0.03063        -0.327394      0.028244     -0.527179
Pb       3.92906      7.76074      8.71725        -0.267524      0.031696     -0.442719
Pb       0.00372      7.68942      8.76747         0.199141      0.230332     -0.406756
Pb       3.86651      7.74863     13.19379         0.059473     -0.062830     -0.384084
Pb      15.42141      7.83272     13.19672         0.376288     -0.418638      0.021697
Pb       3.88679     11.72028      4.33062        -0.039186     -0.425118     -0.318755
Pb       3.91558     11.64544     17.60444        -0.066356      0.380022      0.511895
Pb      15.53647     11.65238      4.45449         0.136269      0.039068     -0.537799
Pb      15.54325     11.63753      0.11056         0.341026     -0.032058     -0.684659
Pb       3.87216     11.64022      8.69645        -0.393527     -0.040845     -0.232454
Pb      15.55480     11.67762      8.80398         0.240941     -0.195092     -0.337855
Pb       3.89752     11.73166     13.18844        -0.149832     -0.564900      0.253408
Pb       0.03554     11.62313     13.15197        -0.236375      0.231999     -0.371565
Pb       7.78684      4.05297      4.31791        -0.426427     -0.341978     -0.156440
Pb       7.72801      3.80645     17.49574         0.807505      0.544010     -0.088222
Pb       7.90856      0.05822      4.28273        -0.027660      0.471801      0.704187
Pb       7.89429     15.51495     17.59068        -0.058143     -0.253926     -0.660099
Pb       7.88067      3.86537      8.74555         0.099121     -0.065290      0.130226
Pb       7.72878     15.48663      8.73027         0.114558      0.217679      0.142479
Pb       7.67004      3.92025     13.06226         0.146308     -0.393754     -0.257995
Pb       7.69148     15.45690     13.22404         0.286367      0.219887     -0.194553
Pb       7.69056      7.94352      4.32936         0.079024     -0.074800     -0.251246
Pb       7.81285      7.81849     17.63158        -0.206453     -0.331710     -0.202192
Pb       7.81117      7.77049      8.76903        -0.046372     -0.012293     -0.394859
Pb       7.67513      7.69109     13.12160         0.504011      0.414785      0.053003
Pb       7.76706     11.83618      4.34870         0.091253     -0.976925      0.292322
Pb       7.73563     11.70332      0.05842         0.294346      0.104528     -0.714667
Pb       7.68453     11.67266      8.89747         0.885237     -0.184829     -0.804326
Pb       7.86094     11.56234     13.22590        -0.175718     -0.258541      0.173349
Pb      11.55644      4.01555      4.37918        -0.053063      0.058957     -0.546246
Pb      11.73030      3.98729     17.51939        -0.324462      0.128609     -0.176688
Pb      11.74276      0.07447      4.40261         0.476357     -0.497928     -0.025991
Pb      11.67652      0.00292     17.56056        -0.124446     -0.264283     -0.367854
Pb      11.68247      3.88601      8.79016        -0.099252      0.219947     -0.201748
Pb      11.66470     15.56571      8.85260         0.628028     -0.638905      0.029111
Pb      11.54184      3.90966     13.21856         0.203740     -0.217851     -0.373686
Pb      11.71975     15.48243     13.16784        -0.040591      0.463735     -0.217076
Pb      11.62051      7.81251      4.37740        -0.150540      0.174593     -0.492766
Pb      11.58770      7.87425     17.62577         0.626369     -0.156528     -0.464967
Pb      11.73981      7.74184      8.77179        -0.098959     -0.014876     -0.405365
Pb      11.65485      7.81885     13.20606        -0.328881     -0.020966     -0.083708
Pb      11.74005     11.94634      4.43952         0.253889     -0.125403     -0.196325
Pb      11.73980     11.76333      0.01188        -0.690239     -0.352494     -0.713869
Pb      11.67791     11.64236      8.70815         0.104116      0.523029     -0.783667
Pb      11.77327     11.71339     13.08997        -0.136769     -0.488983      0.298947
Ti       1.95224      1.89006      2.36673        -0.286670      1.436110      0.430209
Ti       1.91228      1.97040     15.63742        -0.405088     -0.382225     -2.641225
Ti       2.00705     13.70042      2.46170        -0.241695     -0.828187      1.117338
Ti       1.93005     13.58014     15.47922         0.425981      0.401751      1.058953
Ti      13.64440      2.00951      2.36208         0.162633     -0.351747      0.728659
Ti      13.61151      1.82982     15.57242         0.735249      0.592578     -1.707238
Ti      13.77179     13.72103      2.28761        -0.525318     -0.189231      2.499631
Ti      13.67334     13.56261     15.63852        -0.420761      0.254240     -0.500105
Ti       2.05668      1.82455      6.74340        -1.243446      0.345862      1.504213
Ti       2.05086     13.57146      6.59747        -0.216700     -0.132387      1.054958
Ti      13.65146      1.91343      6.95641         1.726045     -0.928901      0.878132
Ti      13.80399     13.64559      6.76734        -1.001844     -0.472515      1.208232
Ti       1.93146      1.96379     11.16008        -0.061680      0.076681     -0.446961
Ti       2.03217     13.57985     11.22997        -0.633851     -0.127188      0.196051
Ti      13.57105      1.85652     11.21350         0.103221      0.094200      0.124520
Ti      13.66786     13.56915     11.17749         0.715568     -0.029833     -1.399003
Ti       1.90062      5.90164      2.38741        -0.327449     -1.128062     -0.664970
Ti       1.87200      5.91048     15.63234        -0.155452     -0.565192      0.912550
Ti      13.55963      5.84121      2.48763         0.370684      0.368178     -0.332152
Ti      13.68830      5.78354     15.52874        -0.657034      0.461412      1.437051
Ti       1.91845      5.78205      6.76648         0.341902      0.227461      0.128427
Ti      13.62543      5.82589      6.59998        -0.390664     -0.281104      0.604403
Ti       1.78283      5.87629     11.08632         0.722273     -0.632895     -0.976093
Ti      13.58725      5.74931     11.18044        -0.559426      0.769446     -0.103155
Ti       1.88930      9.76233      2.37991         0.772912      0.558788      1.807452
Ti       1.99013      9.81868     15.64616        -0.634424     -0.589698      1.018643
Ti      13.64727      9.75934      2.33762        -0.307502     -0.141703      0.723091
Ti      13.73266      9.74529     15.57080        -1.504575     -0.774685      0.745005
Ti       1.87286      9.70648      6.78300         0.404271     -0.084459     -0.100204
Ti      13.63180      9.63121      6.73931         0.383681      1.632061      1.504635
Ti       1.89637      9.68080     11.14968         0.738428      0.372624     -1.604277
Ti      13.65135      9.67240     11.16220        -0.260976     -0.108759     -0.473336
Ti       5.93043      1.99076      2.25609         0.016993      0.682810      1.690925
Ti       5.91181      1.85136     15.62998        -0.264147      0.457574     -0.118899
Ti       5.96705     13.74096      2.52307        -1.919617     -0.936722     -2.112146
Ti       5.83461     13.56709     15.56161         0.512000      0.907458      1.570154
Ti       5.94873      1.93564      6.76206        -0.234208     -0.147640      1.228987
Ti       5.94164     13.62040      6.72922        -0.500703     -0.086183     -0.868649
Ti       5.79167      1.75618     11.21548         0.519568      0.860949      1.258455
Ti       5.90284     13.46688     11.23595        -0.163934      0.575820      0.516013
Ti       5.86409      5.89805      2.24400        -0.980779     -0.403706      0.239946
Ti       5.81306      5.83461     15.65592         0.123876      0.390548     -0.532077
Ti       5.85197      5.86449      6.81449         0.304027     -0.457556      0.665202
Ti       5.73967      5.77447     11.18089         0.187918      0.350481      0.121462
Ti       5.82166      9.80217      2.34106        -0.572782     -0.122747      1.003532
Ti       5.80161      9.77700     15.65727         0.854392     -0.746397      0.681643
Ti       5.85938      9.75508      6.75027        -0.332977     -0.745349      1.349962
Ti       5.72149      9.70488     11.06584         0.648585     -0.278008      1.999631
Ti       9.81027      1.85153      2.30932        -0.554460      0.778873      0.941567
Ti       9.81853      1.91515     15.51092        -0.376401      0.498495      0.776483
Ti       9.80483     13.64457      2.40672         1.024052      0.490842     -1.251905
Ti       9.80695     13.64572     15.48478        -0.956781     -0.631339      1.397632
Ti       9.85212      1.80499      6.85107        -0.792177      0.948515      0.645685
Ti       9.74750     13.66496      6.76028         1.216612     -1.465998      1.224080
Ti       9.69630      1.83802     11.21680         0.052240      0.796099      1.386487
Ti       9.74372     13.61871     11.23133        -0.119461     -0.755903     -0.590345
Ti       9.63819      5.87971      2.36337         0.604808      0.855525     -1.701796
Ti       9.73144      5.93988     15.59283        -0.044449     -0.736776      1.044403
Ti       9.72849      5.84402      6.79065         0.165798     -0.016493      0.071417
Ti       9.71168      5.85490     11.11259         0.223688     -0.328555      0.012146
Ti       9.88252      9.84883      2.41914        -1.224115     -0.509363      0.755442
Ti       9.67780      9.77925     15.66218         1.373005      0.345527      0.078460
Ti       9.69304      9.73961      6.76840         0.087777      0.684800      1.114116
Ti       9.74058      9.75895     11.15152        -0.717659     -0.572155      0.825508
O       1.86225      1.99666      0.62099         0.232962     -0.309706     -0.609835
O       1.85874      1.86843     13.79889         0.105780      0.175296      0.795465
O       2.08468     13.70228      0.76297        -0.139950      0.164318     -1.768024
O       1.99954     13.52229     13.76247        -0.686957      0.075202     -1.332844
O      13.59550      2.05412      0.65584         0.073265     -0.117414     -1.215827
O      13.67127      1.89546     13.74976        -0.065202     -0.411577      0.516421
O      13.70143     13.68615      0.58922        -0.233250     -0.090184     -1.727345
O      13.66172     13.47108     13.87410         0.079710      0.115573     -0.250532
O       2.03952      1.85614      5.02064        -0.128734      0.335296     -0.552502
O       1.93981     13.58546      4.86035         0.217129     -0.020803     -0.167426
O      13.84403      1.69405      5.29140        -0.323004      0.220954     -1.957563
O      13.83874     13.72410      5.03134        -0.276105     -0.263249     -0.859754
O       1.86737      1.89582      9.38834         0.935077     -0.086718      1.102806
O       2.14159     13.61939      9.51923        -0.175102     -0.105822     -1.128292
O      13.63668      1.83682      9.47272        -0.095932      0.188383     -0.459602
O      13.78356     13.54549      9.40529        -0.186324      0.000869      0.185790
O       1.77700      5.83293      0.59782         0.383928      0.086266      0.316785
O       1.88305      5.79814     13.93100         0.171597      0.242570     -1.001721
O      13.60506      5.74927      0.74442         0.481112      0.052483     -0.873936
O      13.66029      5.76097     13.82055         0.072485      0.358287     -1.419075
O       2.00980      5.78801      5.01024        -0.297730     -0.055718     -0.065122
O      13.56494      5.91485      4.81708        -0.094417     -0.319590      0.859026
O       1.73538      5.84460      9.28124         0.334789      0.275159      0.818885
O      13.44766      5.78738      9.42671         0.220428      0.096779      0.079672
O       1.86440      9.77754      0.67771        -0.035735     -0.216031     -1.311353
O       2.07543      9.78073     13.95222        -0.359551     -0.061391     -1.305963
O      13.69194      9.55468      0.58898        -0.094064      0.845592      0.425105
O      13.74507      9.79249     13.79492         0.136082     -0.006137      0.160046
O       1.85201      9.75677      5.03351         0.171079     -0.112788     -0.741393
O      13.67086      9.78728      5.03079        -0.123551     -0.034994     -1.074082
O       1.84044      9.80700      9.31875         0.140790     -0.723902      1.665147
O      13.71713      9.56908      9.38512        -0.221339      0.359481      0.845860
O       5.96588      1.73415      0.53825        -0.351966      0.679113     -0.284729
O       5.84275      1.81098     13.90197         0.199432      0.057905     -0.501173
O       5.87124     13.65848      0.66912         0.155312      0.373746      1.557627
O       5.76969     13.48282     13.88874         0.567494      0.286859     -2.520966
O       5.95023      2.05757      5.07968        -0.108225     -0.132111     -1.375146
O       5.97724     13.61067      4.92764        -0.133069      0.095660      0.288448
O       5.79021      1.78979      9.52199        -0.034073     -0.096571     -1.399306
O       5.97281     13.43256      9.50833        -0.167077      0.148522     -0.845611
O       5.89431      5.85951      0.49802        -0.177044      0.022680     -0.061273
O       5.68738      5.89505     13.83869         0.208120     -0.453184      0.685906
O       5.93245      5.89582      5.11056         0.046516     -0.150182     -1.110144
O       5.78715      5.98406      9.45607        -0.025830     -0.453378     -0.109494
O       5.78297      9.93016      0.62223         0.231067     -0.204898     -0.965470
O       5.89816      9.87894     13.95026        -0.406533     -0.499899     -0.276763
O       5.69672      9.55301      5.06497         0.593522      0.399171     -1.488302
O       5.83610      9.70660      9.33538        -0.041878     -0.040110     -0.219334
O       9.78456      1.87253      0.60538         0.108440     -0.027926     -0.664241
O      10.00301      1.86668     13.78808        -0.502624      0.002957     -0.553539
O       9.78591     13.70858      0.61989        -0.015813     -0.301182      0.584665
O       9.74460     13.60738     13.75618         0.433879      0.181798     -0.971940
O       9.94576      1.83156      5.12864        -0.218845     -0.044176     -0.485571
O       9.85454     13.83979      5.06030        -0.419305     -0.148381     -2.063488
O       9.74807      1.90421      9.51586         0.038276     -0.340764     -1.614534
O       9.67236     13.41762      9.48022        -0.040677      0.599728      0.392976
O       9.56502      5.90458      0.57876         0.279634      0.093855      0.422447
O       9.83684      6.05358     13.87832        -0.116701     -0.488587     -0.347665
O       9.73276      5.84246      5.02202         0.148636     -0.161330     -0.866984
O       9.70075      5.79644      9.33327         0.364540      0.181203      0.382353
O       9.85793      9.90083      0.70030        -0.166560     -0.007725     -1.065698
O       9.75948      9.65450     13.94387        -0.410565      0.211970     -0.782571
O       9.71728      9.81880      5.07238         0.136938     -0.267396     -1.686446
O       9.65142      9.77641      9.41253         0.355762     -0.158233      0.043171
O       4.01562      2.03871      2.85444        -0.447085     -0.532884     -0.893263
O       3.81883      1.92323     15.95505         0.561163     -0.134866      0.736183
O       3.94112     13.76140      2.91016         0.402598      0.006057     -0.085617
O       3.85176     13.65403     15.72151         0.237062      0.204300      1.363396
O      15.52243      2.07201      2.82352         0.875050     -0.383517     -0.122004
O      15.53136      1.77852     15.91266         0.114484      0.486135      0.868390
O       0.04075     13.63986      2.75617         0.192511      0.124718     -0.053662
O      15.55214     13.49664     16.07120         0.656505      0.238049     -0.094270
O       3.92737      2.01454      7.28456         0.080511     -0.568480     -0.477679
O       4.02272     13.44339      7.14584        -0.461752      0.337126     -0.167580
O       0.12865      1.82272      7.42839        -0.465850     -0.338560     -0.783712
O       0.14417     13.70162      7.06882         0.066441     -0.178551      0.459284
O       3.89876      1.85274     11.66617        -0.291601     -0.121833     -0.306696
O       3.92497     13.58911     11.64878         0.314375      0.303801      0.105858
O       0.02431      1.87498     11.49746        -0.302170      0.273974      0.634469
O      15.59325     13.50210     11.48873         0.727953      0.031946      0.745385
O       3.89642      5.70614      2.66629        -0.136561      0.520099      0.207696
O       3.79697      5.85511     16.05494        -0.065449     -0.137042      0.241437
O      15.58315      5.90799      2.78457         0.278643     -0.250970      0.502301
O      15.56029      5.73145     16.00993         0.135702      0.348708      0.343215
O       3.93637      5.76692      7.11634        -0.558051      0.041621      0.428397
O      15.44686      5.84497      7.09068         0.373586     -0.260667     -0.227532
O       3.81485      5.88714     11.63376         0.469248     -0.195200     -0.207061
O      15.54103      5.81635     11.49043        -0.703727     -0.192220      0.381528
O       3.89222      9.86078      2.75877        -0.590203     -0.540446      0.139618
O       3.91872      9.73299     16.16964        -0.543430     -0.022324     -0.301884
O      15.51968      9.75683      2.85544         0.536712     -0.151012     -0.275147
O      15.55349      9.77103     16.11202         0.369934      0.963590     -0.220537
O       3.92343      9.66187      7.14553        -0.208439      0.121541      0.512231
O       0.02042      9.70544      7.11153        -0.993270     -0.244875      0.357834
O       3.84374      9.64984     11.53317         0.207434     -0.684457     -0.115140
O       0.03771      9.60473     11.66366        -0.379654      0.941292     -0.189258
O       7.90018      2.00155      2.83265        -0.100951     -0.181068     -0.329355
O       7.83979      1.94760     15.93970         0.025720     -0.206817      0.043885
O       7.82642     13.63142      2.85673         0.181270      0.253264     -0.274234
O       7.84017     13.73632     15.90975        -0.473057     -0.344091      0.284280
O       7.81117      1.71990      7.17017         0.871296      0.313067      0.227818
O       7.84120     13.71790      7.11356        -0.947389     -0.305725      0.395593
O       7.80858      1.94357     11.61687        -0.452744     -0.390745      0.429838
O       7.84467     13.48572     11.67579        -0.969990      0.143761      0.099116
O       7.71548      5.96113      2.69477         0.398338      0.191841      0.657068
O       7.72515      5.89826     15.90237         0.784296     -0.290463      0.153048
O       7.89636      5.79758      7.19350        -1.287633      0.008656      0.449881
O       7.77924      5.81596     11.54340        -0.388920     -0.078658      0.313789
O       7.75077      9.81023      2.77503        -0.084350      0.234906      0.121154
O       7.77424      9.77472     16.16567        -0.441081      0.036483     -0.103086
O       7.79740      9.66911      7.16243        -0.072809     -0.506997      0.117951
O       7.72276      9.79182     11.64483         0.063076     -0.440545     -0.472418
O      11.69012      1.88002      2.81521         0.067114      0.339785      0.063000
O      11.71256      2.02859     15.93662         0.007412     -0.867106      0.588470
O      11.72386     13.82262      2.81027         0.430427     -0.528433      0.041502
O      11.65209     13.68234     15.94912         0.504878     -0.169713      0.453865
O      11.80064      1.78881      7.31743        -1.714998      0.345891     -0.005953
O      11.70049     13.47954      7.00729         0.363304     -0.114943      0.744287
O      11.69919      1.85399     11.57298         0.012263     -0.148951      0.197087
O      11.73523     13.57402     11.41810        -0.664082     -0.035281      0.892933
O      11.66704      5.81398      2.64054        -0.816805      0.657100      1.084882
O      11.74218      5.86585     16.07411        -0.534655      0.184136     -0.223107
O      11.64463      5.67645      7.10772         1.311980      0.367108      0.170553
O      11.65681      6.03489     11.60159         0.251830     -1.197915     -0.141560
O      11.70235      9.83333      2.78508         0.781883     -0.143960      0.276113
O      11.71013      9.63984     16.00310        -0.025052      0.357138      0.393535
O      11.72669      9.75480      7.18593        -0.308289     -0.083876      0.148648
O      11.68464      9.64533     11.63065        -0.110615      0.562571     -0.539699
O       1.94999      3.86671      2.81816        -0.303369      0.080314      0.187872
O       1.85660      3.83136     15.90575         0.210637      0.404875      0.805206
O       1.94903      0.08431      2.76099         0.101938     -0.415119      0.151777
O       1.86469     15.52862     15.85704         0.148758     -0.528645      0.708140
O      13.59558      3.94962      2.85058         0.015130     -1.138352      0.453909
O      13.62707      3.83612     15.76870         0.197469      0.143789      1.155237
O      13.81632      0.00054      2.78313        -0.605192      0.694548     -0.122442
O      13.59489     15.51332     15.88110        -0.085487      0.243240      0.557267
O       1.88346      3.90065      7.22673         0.153552     -0.275653     -0.338860
O       2.20091     15.48180      7.07897        -0.121078      0.300732      0.063667
O      13.67694      3.80553      7.15967        -0.311338      0.816627     -0.171303
O      13.57323     15.42077      7.31280         0.554672      0.631094      0.410201
O       1.97567      3.95842     11.49823        -0.110935     -0.982268      0.307761
O       1.96075     15.51373     11.51387        -0.157657      0.435593      0.550070
O      13.52591      3.88151     11.64193         0.256547     -0.156809     -0.249863
O      13.69805     15.48951     11.46958        -0.120252      0.542869      0.769706
O       1.99804      7.75521      2.83817        -0.323340      0.601024     -0.486347
O       1.73809      7.91183     16.05625         0.991545     -1.278405      0.065407
O      13.58463      7.84451      2.88245        -0.043394      0.310212     -0.107877
O      13.74378      7.77949     15.96952         0.048748     -0.078621     -0.149927
O       1.80937      7.73616      7.15220         0.661534     -0.390495      0.184147
O      13.60481      7.75581      7.06258        -0.355100     -0.883318      0.078481
O       1.85936      7.67099     11.61114         0.228373      1.359053      0.023754
O      13.66023      7.81169     11.59205         0.161946     -0.436674      0.260168
O       1.95666     11.67239      2.65642        -0.091271      0.290146      0.729101
O       1.98729     11.70791     16.04539        -0.268332      0.080677      0.218458
O      13.66908     11.77824      2.75050        -0.166705     -0.471251     -0.116527
O      13.47211     11.68225     16.06692         0.744586     -0.339499      0.202114
O       1.95711     11.63470      7.11390         0.162032      0.940827      0.153709
O      13.80212     11.63549      7.31919        -0.533400      0.270516     -0.706581
O       2.07224     11.56543     11.55045        -0.754558      0.239184      0.330400
O      13.62777     11.63853     11.57772         0.266948     -0.698888      0.066539
O       5.96348      3.94457      2.73996         0.001504     -0.399490     -0.368940
O       5.87203      3.85695     16.09109        -0.656966      0.052522     -0.210407
O       5.92015      0.13594      2.88124         0.305935     -1.014444     -0.320593
O       5.87070     15.59178     16.04730        -0.254608     -0.660773     -0.056360
O       6.00556      3.81430      7.28625        -0.481665      0.405173     -0.016742
O       5.82157     15.50927      7.08398        -0.354611      0.180703      0.514338
O       5.82886      3.80379     11.52739        -0.214454      0.860632      0.358154
O       6.00429     15.42566     11.54998        -0.621862      0.438483      0.418959
O       5.63476      7.80620      2.77763         0.946887      0.050109     -0.466173
O       5.81048      7.73551     16.06787        -0.244194      0.840910     -0.058298
O       5.85199      7.71608      7.28092         0.290873      0.363311      0.000626
O       5.85049      7.75283     11.71325        -0.533158      0.464912     -0.699717
O       5.77291     11.73210      2.78573         0.637510      0.661300      0.428712
O       5.83845     11.73930     16.04443        -0.016830     -0.570768      0.470115
O       5.99628     11.62751      7.13757        -0.180302      0.578335     -0.057733
O       5.63233     11.59374     11.66093         1.117603     -0.123441     -0.674517
O       9.72353      4.06918      2.69026         0.071512     -1.874916      0.749938
O       9.78378      3.88292     15.96488        -0.279013      0.437533     -0.176514
O       9.73456     15.53629      2.68929        -0.267605      1.501623      0.490373
O       9.75357     15.58883     15.99899         0.426259      0.415282     -0.087437
O       9.73663      3.80038      7.26173         0.190721     -0.922373     -0.228544
O       9.79354     15.46855      7.37312         0.206256      1.476405     -0.001681
O       9.71099      3.86685     11.54223         0.509897      0.517374      0.554915
O       9.73894     15.53552     11.65282        -0.085172     -0.467179     -0.129217
O       9.68920      7.92411      2.74411         0.495686     -0.416912      0.443901
O       9.72071      7.84312     16.13573        -0.291081     -0.552013      0.049131
O       9.77768      7.73573      7.12744         0.248082      0.491372      0.383422
O       9.72811      7.70997     11.62104        -0.562612      1.233509     -0.379679
O       9.89201     11.82764      2.85815        -0.648592     -0.855606      0.293501
O       9.71737     11.70469     15.99885         0.207266      0.288834      0.172867
O       9.63967     11.70060      7.12573         0.180611     -0.419104      0.310049
O       9.64215     11.63147     11.68024         1.193415     -0.340901     -0.217341
