  # total energy = -7877.30644523 
CRSYTAL
PRIMVEC
    15.3600000000000000    0.0000000000000000    0.0000000000000000
     0.0000000000000000   15.3600000000000000    0.0000000000000000
     0.0000000000000000    0.0000000000000000    17.440000000000000
PRESSURE
0.83055 1.07486 -5.09331 -0.461053 -0.213903 0.067671
PRIMCOORD
320 1
Pb       3.80731      3.83843      4.36723         0.072668      0.058409     -0.217400
Pb       3.92454      3.81751     17.35560        -0.722130     -0.053253      0.797816
Pb       3.82608     15.34920      4.31961        -0.279173     -0.530977      0.744061
Pb       3.87790      0.01880     17.39983        -0.099018     -0.265386      0.459769
Pb      15.31811      3.82571      4.36956         0.192016      0.030888      0.207103
Pb       0.04342      3.82627      0.01280         0.141729      0.374077      0.043697
Pb       0.00411     15.32407      4.32337         0.054716     -0.085682      0.025515
Pb      15.20492     15.32895     17.41180         1.069536     -0.009307      0.793885
Pb       3.80017      3.88857      8.60276        -0.174342     -0.026509      0.500108
Pb       3.82399     15.32823      8.76809        -0.226391      0.166240     -0.009180
Pb      15.17521      3.85317      8.62383         0.652429      0.243572      0.923876
Pb      15.30178      0.09524      8.66427         0.450212     -0.764314      0.997826
Pb       3.86645      3.78501     12.97916        -0.374762      0.374469      0.883323
Pb       3.80136     15.26947     13.00895        -0.212363      0.274284      0.060044
Pb      15.31938      3.74715     13.07252         0.209601      0.445238      0.457482
Pb      15.34843      0.02598     12.95478         0.103457     -0.827369      1.043108
Pb       3.87445      7.69467      4.28310         0.073370     -0.248250      0.423592
Pb       3.76624      7.66771      0.01409         0.305841     -0.122221     -0.152561
Pb       0.09717      7.66822      4.30258        -0.390220      0.164945      0.669609
Pb      15.34644      7.75940     17.35318         0.002291     -0.847180      0.319380
Pb       3.91423      7.61951      8.68429        -0.928605      0.614009      0.711625
Pb      15.33335      7.63459      8.67438         0.248763      0.300986      0.439656
Pb       3.83197      7.65785     13.06021        -0.363925      0.208086      0.554726
Pb       0.02645      7.68372     13.05840         0.236946      0.001866      0.556875
Pb       3.73347     11.47795      4.30668         0.125357      0.066504      0.654254
Pb       3.93053     11.38874     17.34820        -0.426505      0.204036      0.559566
Pb       0.08043     11.59014      4.22019        -0.118413     -0.557454      1.195640
Pb      15.31644     11.47030     17.36728        -0.037137      0.229986     -0.188440
Pb       3.79706     11.57005      8.70291         0.123156     -0.633092      0.314864
Pb      15.35667     11.42112      8.65944        -0.219985      0.344594      0.722627
Pb       3.91439     11.51840     13.01534        -0.487549     -0.602582      0.011519
Pb       0.04617     11.48678     13.09764        -0.011440     -0.114129     -0.129186
Pb       7.67099      3.75318      4.36817         0.156078      0.709102     -0.132479
Pb       7.72655      3.88575     17.29124        -1.347722     -0.357238      1.452392
Pb       7.66682      0.04364      4.30588        -0.346814     -0.651275      0.373319
Pb       7.52304     15.34734     17.34870         0.195300     -0.123439      0.672184
Pb       7.66155      3.81763      8.67717        -0.057677      0.034116      0.673831
Pb       7.68765     15.29251      8.64654        -0.210563      0.166787      0.147508
Pb       7.75880      3.89824     13.16123        -0.535701     -0.061360     -0.071070
Pb       7.70519      0.06418     13.02934        -0.477036     -0.426969      0.231679
Pb       7.59195      7.60721      4.28281         0.117326     -0.349132      0.512921
Pb       7.66998      7.64274     17.41707        -0.962684      0.058436      0.178493
Pb       7.62015      7.76929      8.63312         0.183584     -0.436030      0.869944
Pb       7.64593      7.63337     13.00984        -0.313370      0.207980      0.870878
Pb       7.65138     11.45218      4.32512         0.322233     -0.058883      0.540885
Pb       7.62210     11.58982     17.32851        -0.391844     -0.608007      0.902904
Pb       7.71650     11.48069      8.68717        -0.561839      0.328759      0.211369
Pb       7.79522     11.60364     13.06913        -0.868776     -1.025782     -0.009498
Pb      11.56373      3.76607      4.34123        -0.524638      0.816318      0.582368
Pb      11.50644      3.82877     17.43395         0.365770     -0.134040      0.229121
Pb      11.53065      0.02706      4.24941         0.360979     -0.609171      1.246444
Pb      11.47495     15.33278     17.27189        -0.462857     -0.292183      0.799345
Pb      11.55942      3.95709      8.66581        -0.485774     -0.714581      0.489570
Pb      11.50441     15.29637      8.64863        -0.235630      0.228516      0.409242
Pb      11.52016      3.76137     13.14285        -0.186326      0.235043      0.309824
Pb      11.43532     15.33548     13.01654         0.800926      0.193498      0.739079
Pb      11.55760      7.68748      4.25019        -0.430073     -0.337203      1.192562
Pb      11.44864      7.61683     17.42899         0.353023     -0.004626      0.052135
Pb      11.54165      7.66008      8.66174        -0.377742      0.199172      0.148451
Pb      11.45073      7.69524     12.99923         0.210651     -0.249815      0.839904
Pb      11.54498     11.43781      4.36317        -0.128900     -0.292744      0.319566
Pb      11.43728     11.49083     17.38004         0.216141      0.167977     -0.120672
Pb      11.49096     11.50451      8.76838         0.233537      0.151993      0.131510
Pb      11.49461     11.49859     12.97136        -0.105803     -0.744521      0.909785
Ti       1.98462      1.93095      2.35445        -0.119038     -0.403586     -1.757640
Ti       1.98590      1.89021     15.38766         0.123751      0.162514     -0.601109
Ti       1.91226     13.48250      2.20118         0.149675     -0.321073     -1.039455
Ti       1.86050     13.50813     15.43900         0.481825     -0.367148     -0.073286
Ti      13.54229      1.89996      2.41445        -0.302221      0.347214     -0.856057
Ti      13.51524      1.93640     15.44798        -0.190766     -0.062374     -1.191559
Ti      13.35844     13.36393      2.36508         0.892767      0.034210     -1.450131
Ti      13.41943     13.46667     15.33466        -0.097859     -0.996349     -0.645045
Ti       1.91568      1.93433      6.71098         0.177126     -0.304270     -0.145373
Ti       1.83957     13.40326      6.75173         0.322867     -0.077289     -0.583092
Ti      13.47409      1.89554      6.71376        -1.233483      0.064023     -1.243029
Ti      13.36686     13.44005      6.70838        -0.158850     -0.581043     -0.499536
Ti       1.87085      1.93657     11.00877         0.977370     -0.218053     -1.562744
Ti       1.86171     13.42437     11.03643        -0.007039     -0.941718     -1.277726
Ti      13.40436      1.84306     11.12244        -0.492175      0.382758     -1.284623
Ti      13.38136     13.33858     11.13691         0.515764      0.503738     -1.896026
Ti       1.84280      5.74291      2.38971         0.615921     -0.487974     -1.946379
Ti       1.82355      5.70558     15.35013         0.708368      0.124380     -0.378005
Ti      13.39167      5.78333      2.35291         0.450679     -0.546633     -1.442033
Ti      13.38692      5.74419     15.40394         0.655622     -0.341475     -0.854738
Ti       1.78666      5.76823      6.60035         0.669512      0.342751     -0.044688
Ti      13.39358      5.82966      6.64180        -0.671468      0.044554     -1.301195
Ti       1.87448      5.70848     11.03540         0.068364      1.228325     -0.924344
Ti      13.46152      5.63762     11.19020        -0.516252      0.234257     -0.288454
Ti       1.92430      9.57463      2.33426         0.449238      0.059101     -1.064099
Ti       1.85148      9.58204     15.43015         0.542877     -0.091499     -1.548415
Ti      13.50272      9.54879      2.32598        -1.362674      0.007677     -0.381931
Ti      13.27312      9.54056     15.43497         0.919940      0.329421     -1.626090
Ti       1.88509      9.56623      6.66987         1.048573     -0.127657     -1.040418
Ti      13.38374      9.67927      6.64424        -0.205812     -0.536576     -1.337345
Ti       1.86198      9.57992     11.01292         0.545042      0.312938     -0.460495
Ti      13.39449      9.46118     11.08872         0.170974      0.918297     -0.870437
Ti       5.74559      1.84915      2.38547         0.007623     -0.676261     -2.046504
Ti       5.73402      1.86289     15.28144        -0.044827      0.361160      1.278627
Ti       5.73192     13.31559      2.42925        -0.763267      0.538861     -1.941902
Ti       5.67017     13.37783     15.25910         0.139801     -0.206943     -0.322828
Ti       5.71501      1.91614      6.69233        -0.236008      0.253328     -0.882348
Ti       5.60859     13.46727      6.59963        -0.010175     -0.507178     -0.340410
Ti       5.71591      1.89976     11.06451         0.126525     -0.203623     -0.863335
Ti       5.69925     13.39644     10.99475        -0.048163      0.074865      0.057797
Ti       5.71344      5.62607      2.26401         0.486123      1.010267     -1.398162
Ti       5.62337      5.71724     15.45364         0.221348      0.731081     -1.150748
Ti       5.73113      5.82839      6.76290        -0.120730     -0.339924     -1.437700
Ti       5.72079      5.69755     11.05260        -0.014050      0.486688     -0.479740
Ti       5.80628      9.52402      2.37022        -1.766331      0.054895     -2.109957
Ti       5.70860      9.54003     15.35121         0.218465     -0.898079     -1.187934
Ti       5.73268      9.61928      6.59707        -1.025405     -0.133726     -0.694251
Ti       5.73584      9.52114     11.03706        -0.604070      0.467501      0.270067
Ti       9.64907      1.88552      2.44286        -0.462481      0.482366     -1.938007
Ti       9.58379      1.92628     15.45919        -0.269606     -0.654658     -0.695389
Ti       9.59488     13.34354      2.37406        -0.558108     -0.010125     -1.323021
Ti       9.50836     13.40751     15.37125        -0.042845     -0.272724     -0.082276
Ti       9.53437      1.91047      6.66636         0.963371      0.205604     -0.250322
Ti       9.48661     13.36341      6.68438         0.663748      0.110699     -0.705097
Ti       9.56054      1.92143     11.10164         0.303041      0.657867     -1.556021
Ti       9.53376     13.42272     11.08085         0.300567     -0.026427     -1.302647
Ti       9.49648      5.77320      2.24371         0.309887     -0.440592      0.354599
Ti       9.54112      5.75824     15.43488        -0.445404     -0.604576     -1.092215
Ti       9.49494      5.70878      6.66620         1.477294      0.427288     -1.602171
Ti       9.62997      5.70887     11.07731        -0.257802     -1.108624     -0.120608
Ti       9.55845      9.55026      2.32168         0.408216     -0.265712     -0.507272
Ti       9.51919      9.54661     15.38749        -0.880645      0.414062     -1.164826
Ti       9.56959      9.56734      6.69437         1.211087      0.178131     -0.898219
Ti       9.53232      9.51948     10.94018         0.077786     -0.146651      0.330028
O       2.08183      1.82194      0.50019        -0.457054      0.531928      2.561220
O       2.10491      1.80601     13.57689        -0.869085      0.236655      1.343066
O       1.79985     13.47333      0.35042         0.276048     -0.189571      2.364720
O       1.80245     13.54308     13.63889         0.214851     -0.309019      1.099327
O      13.57780      2.01508      0.61534        -0.520270     -0.534296      0.904195
O      13.49118      1.85804     13.60149        -0.073361      0.091714      2.094428
O      13.35509     13.35746      0.51774        -0.077961      0.067803      2.011020
O      13.55132     13.50815     13.52218        -0.558806     -0.176206      1.757913
O       1.89783      1.96072      4.90205         0.054783     -0.056195      1.422773
O       1.92874     13.28993      4.93030        -0.303988      0.481494      1.820603
O      13.54386      1.82253      4.88429        -0.189060      0.033027      1.662376
O      13.39445     13.40212      4.86577         0.160587      0.210069      1.825363
O       2.02167      1.91292      9.13022        -0.740926      0.138513      2.392366
O       1.94788     13.41550      9.19046        -0.259206     -0.128339      1.580806
O      13.48194      1.99178      9.28187        -0.291389     -0.345352      1.456804
O      13.22898     13.41794      9.27163         0.390007     -0.047679      2.063224
O       1.81867      5.62486      0.54719        -0.037422      0.312352      1.925971
O       1.92614      5.83043     13.53527        -0.517377     -0.462399      1.736641
O      13.46018      5.71843      0.45201        -0.316145      0.162428      2.653417
O      13.54584      5.62985     13.57138        -0.472484      0.021643      1.514901
O       1.75039      5.71068      4.76020         0.600827      0.075254      2.204829
O      13.51417      5.79513      4.84632        -0.349395     -0.111423      1.368478
O       1.79827      5.89750      9.18618         0.088319     -0.530407      1.953145
O      13.37512      5.67705      9.36272         0.161136     -0.039590      1.150396
O       1.83676      9.53077      0.46260        -0.131484     -0.007016      1.886302
O       1.87922      9.54488     13.56359        -0.356854      0.199132      2.527481
O      13.27169      9.45414      0.46864         0.577595      0.295575      1.868666
O      13.30677      9.52418     13.60076        -0.134387      0.078129      1.389633
O       2.05883      9.57361      4.77516        -0.965254      0.065953      2.487807
O      13.41905      9.62757      4.78195        -0.175998      0.018903      2.424890
O       1.83938      9.60403      9.16856        -0.115977     -0.190006      1.224951
O      13.24436      9.56837      9.24671         0.623754     -0.181557      2.170339
O       5.67157      1.57162      0.50747         0.361250      1.025018      2.513078
O       5.65144      1.89569     13.52200         0.207396     -0.289733      0.699100
O       5.68953     13.31301      0.55002         0.305326     -0.027313      2.223787
O       5.68579     13.39106     13.42533         0.222866      0.055025      1.835621
O       5.63803      1.81669      4.83607         0.578653      0.438967      1.782486
O       5.40494     13.53299      4.77426         1.330878     -0.524001      2.218906
O       5.73976      2.00804      9.25554        -0.267464     -0.188087      1.377421
O       5.67828     13.39825      9.19420         0.217256      0.175270      1.032248
O       5.83603      5.76526      0.41939        -0.685071     -0.308753      2.177768
O       5.67844      5.73106     13.61719        -0.124612     -0.215484      1.465795
O       5.82191      5.92723      4.91711        -0.136100     -0.512984      1.875854
O       5.70643      5.78272      9.14851        -0.031945     -0.139446      2.390977
O       5.60942      9.55155      0.47191         0.551308      0.118331      2.295801
O       5.77163      9.49684     13.49257        -0.296091      0.555904      2.058741
O       5.85103      9.33438      4.76499        -0.550792      0.746666      1.949658
O       5.67978      9.46396      9.23267         0.349745      0.404225      1.644436
O       9.60843      1.73402      0.60868         0.173275      0.181335      1.909801
O       9.62329      2.05387     13.66246        -0.395462     -0.693690      1.227802
O       9.48985     13.40019      0.51797         0.501797     -0.130582      2.114938
O       9.38262     13.29240     13.57080         0.610669      0.411906      0.778285
O       9.59016      2.18109      4.82711        -0.362893     -1.020689      1.601258
O       9.59310     13.16575      4.89862        -0.157885      0.371517      1.244130
O       9.65008      1.92847      9.27694        -0.606970     -0.166910      1.641696
O       9.50089     13.49893      9.24481        -0.112516     -0.062853      1.916929
O       9.43129      5.90996      0.40341         0.619967     -0.739358      1.658207
O       9.33335      5.62666     13.59873         0.977816      0.321900      1.978985
O       9.66956      5.63696      4.82286        -0.758178     -0.066695      2.182139
O       9.60175      5.64433      9.31611         0.112383      0.119287      0.257958
O       9.44601      9.50880      0.52492         0.637244     -0.097126      1.135849
O       9.48168      9.62007     13.55867         0.328571     -0.291513      1.991963
O       9.71467      9.79771      4.86115        -0.865725     -0.667353      2.097258
O       9.57076      9.61155      9.14353        -0.313156     -0.449919      1.094990
O       3.90315      1.77026      2.87081        -0.800328      1.085060     -0.925231
O       3.91124      1.94200     15.89327        -0.143253     -0.638062     -0.907354
O       3.73255     13.48379      2.76144         0.618175     -0.115522     -0.850415
O       3.84107     13.23433     15.78074        -0.535548      0.889045     -0.759785
O       0.03776      1.88160      2.81017         0.301267      0.033717     -0.388466
O       0.06145      1.75089     15.80987        -1.055670      0.920998     -0.416479
O      15.33573     13.33421      2.78817         0.548029      0.950458     -0.902200
O      15.30682     13.47541     15.86504        -0.029887     -0.321504     -0.572128
O       3.79097      1.99328      7.16066         0.093979      0.029392     -0.788632
O       3.78332     13.40993      7.26843         0.186730      0.702849     -1.105380
O      15.29823      1.93765      7.21160         0.865543     -0.162575     -0.827882
O      15.25950     13.33189      7.19605         0.761179      0.491935     -0.774692
O       3.70845      1.91268     11.54371         1.066352     -0.380359     -1.133576
O       3.76275     13.37339     11.46636         0.482145      0.204259     -0.493490
O      15.35182      1.80991     11.50941         0.020660      0.863871     -0.825602
O      15.29956     13.27396     11.42754         0.196759      0.698190     -0.318376
O       3.91602      5.71857      2.77869        -0.842993     -0.125315     -0.256863
O       3.75949      5.65502     15.92478        -0.005414      0.217051     -0.666433
O       0.02405      5.70438      2.79812        -0.990779      0.139267     -0.573620
O      15.24796      5.62166     15.81096         1.160361      0.340994     -0.320852
O       3.77248      5.88331      7.08571        -0.294039     -0.510972     -0.837517
O      15.19832      5.84236      7.17427         0.898967     -0.491650     -0.647344
O       3.72493      5.78862     11.54111         1.218381     -0.312997     -1.129423
O       0.01804      5.64163     11.55677        -0.547180      0.059008     -0.603856
O       3.77299      9.49188      2.77425         0.807177      0.120080     -0.670957
O       3.73363      9.50266     15.86625         0.076192      0.383812     -0.679030
O      15.35726      9.63090      2.79286         0.643606     -0.469341     -0.893712
O      15.19869      9.47297     15.79889         0.806387      0.280463     -0.184050
O       3.82537      9.52258      7.07156        -0.616563     -0.324472     -0.503609
O      15.25651      9.67203      7.06895         0.503379     -0.120632     -0.436176
O       3.72440      9.48345     11.49723         1.369306      0.837684     -0.749880
O      15.27071      9.61520     11.47299        -0.416194     -0.036685     -0.403446
O       7.60226      1.91328      2.87984         1.029106     -0.304715     -0.526626
O       7.64403      1.93268     15.86881        -0.185501     -0.413637     -0.824806
O       7.73591     13.30890      2.88692        -0.357973     -0.045327     -0.651242
O       7.55946     13.34928     15.88153         0.214278     -0.033393     -1.112352
O       7.59678      1.92627      7.18666         0.625277      0.122555     -0.831964
O       7.51539     13.38197      7.09597         0.308030      0.068191     -0.511777
O       7.64337      1.82212     11.53177         0.183803      0.104945     -0.682202
O       7.70267     13.45466     11.52896        -0.441662      0.162694     -0.853892
O       7.66812      5.61299      2.76519        -0.040424      0.428086     -0.422357
O       7.55989      5.73640     15.86865         1.035877     -0.246643     -0.730341
O       7.68862      5.82407      7.23364        -0.476637     -0.010485     -0.933603
O       7.50834      5.75456     11.60373         0.811319     -0.344883     -1.323544
O       7.60632      9.62415      2.81158         1.429391     -0.010922     -0.634970
O       7.62132      9.39697     15.84962        -0.040420      0.808045     -0.787944
O       7.58303      9.61170      7.16137         0.875599      0.200450     -0.823044
O       7.68327      9.46325     11.44953        -0.335007      0.020889     -1.007260
O      11.56629      1.92758      2.93260        -0.463819     -0.415210     -1.221496
O      11.48409      1.90413     15.90765         0.377003     -0.425484     -0.439499
O      11.52753     13.38241      2.84118        -0.412715      0.149016     -0.790862
O      11.44941     13.36587     15.67186         0.082335      0.346005      0.019438
O      11.40185      1.86393      7.09183         0.656042      0.205970     -0.613739
O      11.38571     13.46192      7.21024         0.878866      0.011035     -0.980031
O      11.45253      1.95118     11.64343         0.614501     -0.535998     -0.831082
O      11.43910     13.37033     11.61152        -0.242755      0.238152     -0.675082
O      11.52401      5.90170      2.67711        -0.113221     -0.730596     -0.666240
O      11.50830      5.60696     15.81280        -1.207724      0.262721     -0.243987
O      11.52435      5.72810      7.16687        -0.251150     -0.179038     -0.550441
O      11.49326      5.61543     11.63566         0.598248      0.162356     -0.728451
O      11.52215      9.41130      2.80606         0.159600      0.792752     -1.374046
O      11.38257      9.54086     15.84670        -0.073914     -0.014098     -0.105700
O      11.44192      9.66025      7.16586         0.102780      0.189591     -0.683972
O      11.42675      9.47912     11.49233         0.714587      0.138892     -0.454483
O       1.87739      3.82961      2.82376         0.747085     -0.877840     -0.346843
O       1.97439      3.79266     15.80797        -0.660703     -0.171712     -0.386859
O       1.96905      0.02201      2.77953        -0.978218     -0.558032     -0.529594
O       1.97940      0.06528     15.88518         0.073181     -1.699655     -0.740066
O      13.45512      3.81000      2.91639        -0.080730      0.555671     -1.072337
O      13.37571      3.77844     15.95560         0.434400     -0.762825     -0.903162
O      13.45515     15.35170      2.77658        -0.073878     -0.680030     -0.383974
O      13.45429     15.30808     15.96332        -0.880247      0.559965     -1.121710
O       1.82799      3.92374      7.10966        -0.037478     -0.288454     -0.607542
O       1.89870     15.35588      7.14931        -0.312942     -0.002916     -0.761017
O      13.44649      3.79998      7.07603        -0.371193      0.337963     -0.497007
O      13.48212     15.35682      7.23844        -0.555750     -0.109054     -0.957548
O       1.93412      3.83720     11.44402        -0.453069     -0.663133     -0.562504
O       1.85166     15.27369     11.42146         0.189020      0.848083     -0.395916
O      13.39358      3.69226     11.66141         0.611930      0.868844     -0.852745
O      13.37184     15.32313     11.47092        -0.179359      0.083866     -0.206603
O       1.95309      7.63103      2.79595        -0.514870      0.308948     -0.765561
O       1.93698      7.54353     15.92945        -0.906368      0.572580     -0.778912
O      13.54312      7.62425      2.91184         0.027660      0.434852     -1.376932
O      13.28933      7.61817     15.78685         0.010741     -0.096723     -0.182040
O       1.69770      7.65759      7.05791         0.377707      0.455217     -0.644999
O      13.25141      7.76469      7.10725         0.772975     -0.564765     -0.582100
O       1.82624      7.77281     11.52236        -0.435679     -1.629526     -0.761504
O      13.46375      7.54862     11.62324        -0.472216      0.702750     -1.112814
O       2.10338     11.52098      2.72851        -1.588648     -0.104470     -1.040310
O       1.81776     11.43656     15.83783        -0.380751      0.431623     -0.549070
O      13.52962     11.43399      2.78406        -0.972604      0.414990     -1.002600
O      13.35821     11.48963     15.83696         0.122791      0.220131     -0.402264
O       1.99619     11.46742      7.22347        -0.864803      0.110754     -1.042129
O      13.33366     11.56603      7.21946        -0.161155     -0.332853     -0.873739
O       1.91195     11.49703     11.56670        -0.201681      0.005324     -0.525254
O      13.37987     11.50888     11.61675        -0.361728     -1.088355     -0.819752
O       5.73317      3.77420      2.68539        -0.200834     -0.391696     -0.060972
O       5.70096      3.79413     15.91765         0.626870     -0.493909     -1.153771
O       5.85158     15.18251      2.76737        -0.025994      1.299782     -0.132946
O       5.76736     15.24292     15.73386        -0.388315      0.759762     -0.738262
O       5.72117      3.90119      7.07021         0.000836     -0.119080     -0.359944
O       5.69543      0.09309      7.14725        -0.192113     -1.194156     -0.499961
O       5.79008      3.76676     11.56119        -0.666705      0.824893     -1.009688
O       5.65082     15.32203     11.40467         0.279977      0.266549     -0.243830
O       5.78967      7.64449      2.70672         0.203356     -0.537344     -0.417909
O       5.55899      7.66169     15.78245         0.367722     -0.424912     -0.151158
O       5.73485      7.74054      7.28948         0.419429     -0.619632     -1.442337
O       5.69499      7.68332     11.62324         0.075167     -0.921585     -1.618464
O       5.65516     11.43636      2.85190         0.297526      0.263207     -0.416266
O       5.66375     11.40589     15.74266         0.608968      0.464781     -0.384653
O       5.56461     11.50381      6.87161         0.596717      0.150137     -0.059135
O       5.72355     11.55035     11.40484         0.176658     -1.179705     -0.350353
O       9.63097      3.82339      2.68575         0.137617     -0.040354     -0.463608
O       9.54847      3.74539     16.01271         0.547240      0.849137     -1.116589
O       9.58571     15.30250      2.94548         0.057256      0.088281     -0.878317
O       9.44834     15.24688     15.74869         0.567036      0.965367     -0.265371
O       9.50250      3.87121      7.21791         0.219906     -0.736859     -0.902620
O       9.49929     15.31157      7.02420        -0.432858      0.639737     -0.343306
O       9.56915      3.80490     11.60228        -0.532570     -0.337233     -0.634022
O       9.68285     15.35331     11.58714        -0.907914     -0.395371     -0.749350
O       9.50029      7.63036      2.78647        -0.043829      0.093985     -0.680709
O       9.49776      7.55293     15.75932         0.731267      1.130610     -0.341453
O       9.70319      7.66353      6.98129        -0.830716      0.277148      0.000204
O       9.67449      7.49273     11.44452        -0.695197      2.041484     -0.216792
O       9.69729     11.38094      2.72341        -0.278245      1.313819     -0.509880
O       9.46581     11.47106     15.89692         0.374800     -0.253238     -0.818776
O       9.58200     11.53811      7.33763        -0.637110     -0.258556     -1.260422
O       9.52971     11.34575     11.42075         0.142306      1.718509     -0.449633
