  # total energy = -7880.99993327 
CRSYTAL
PRIMVEC
    15.3600000000000000    0.0000000000000000    0.0000000000000000
     0.0000000000000000   15.3600000000000000    0.0000000000000000
     0.0000000000000000    0.0000000000000000    17.440000000000000
PRESSURE
1.37257 0.629184 -1.80763 -0.323103 -0.318388 -0.035455
PRIMCOORD
320 1
Pb       3.87689      3.82780      4.38707        -0.056755     -0.182545      0.043213
Pb       3.92156      3.82441     17.41519        -0.638011      0.080313      0.520528
Pb       3.79586      0.02448      4.30269        -0.145398     -0.252802      0.535089
Pb       3.68039     15.33712     17.35839         0.295497     -0.165225      0.403212
Pb       0.04963      3.72561      4.35247        -0.047031      0.395465      0.221981
Pb       0.08724      3.97586     17.41423        -0.588055     -0.740324      0.183170
Pb       0.08856      0.01940      4.31503        -0.400285     -0.430494      0.056166
Pb      15.24233     15.32273     17.37600        -0.206657      0.346738      0.331201
Pb       3.74911      3.73402      8.73605         0.125639      0.295512      0.277700
Pb       3.87589      0.01478      8.56587        -0.394228     -0.609860      0.541696
Pb      15.16363      3.95669      8.62532        -0.019298     -0.845353      0.766213
Pb      15.18988     15.34714      8.69505         0.686577      0.093362      0.186068
Pb       3.73694      3.68022     13.10811         0.728373      0.213839     -0.605626
Pb       3.71442     15.35079     12.94377         0.327345     -0.630291      0.084507
Pb       0.04641      3.79022     13.05831        -0.737866     -0.105877     -0.081268
Pb      15.34431     15.29898     13.07125         0.040000     -0.264895     -0.278640
Pb       3.86743      7.65665      4.33157        -0.713773     -0.200866     -0.035273
Pb       3.81282      7.56680     17.37398        -0.492616      0.465886      0.581931
Pb       0.11862      7.84211      4.35272        -0.088255     -0.704932     -0.016191
Pb      15.16287      7.68721     17.41510         0.990955      0.058260     -0.431232
Pb       3.84344      7.73219      8.63212        -0.156891     -0.691967      0.830309
Pb       0.04838      7.59444      8.62138        -0.625279      0.284641      0.569950
Pb       3.81645      7.55628     12.97921         0.368939      0.131755      0.129864
Pb      15.35380      7.62747     13.12160         0.145676      0.072572     -0.383573
Pb       3.81373     11.59866      4.22244        -0.416552     -0.018155      0.102038
Pb       3.98462     11.61694     17.39646        -0.301858     -0.259281      0.180132
Pb       0.04724     11.55513      4.37882        -0.645513      0.340352     -0.527433
Pb      15.28680     11.58269     17.28155        -0.275606     -0.201173      0.351210
Pb       3.88688     11.53741      8.60578        -0.889042     -0.038779      0.634756
Pb      15.26542     11.43220      8.69489         0.442466     -0.133325      0.083252
Pb       3.91162     11.45735     13.15283        -0.572472      0.064401     -0.418618
Pb       0.16786     11.59059     13.05331        -0.353775     -0.256350      0.216072
Pb       7.73053      3.75137      4.36163        -0.322135     -0.331581     -0.953298
Pb       7.67700      3.88485     17.41010         0.049925     -0.077229      0.259648
Pb       7.71194      0.02229      4.38271         0.229427      0.212796     -0.008498
Pb       7.56830      0.08949     17.29742         0.409723     -0.510795      0.483995
Pb       7.61628      3.82292      8.77994         0.562499     -0.095215     -0.359722
Pb       7.65836     15.22127      8.73286        -0.029780      0.565463     -0.433782
Pb       7.87135      3.91947     13.06687        -0.656694     -1.259046      1.079025
Pb       7.66957      0.13224     13.03230        -0.587262      0.316049     -0.153330
Pb       7.73425      7.51393      4.32219        -0.513167      0.927556     -0.236254
Pb       7.60166      7.79395     17.38659         0.688192     -0.563804      0.557659
Pb       7.69533      7.68776      8.64915         0.015664     -0.734273      0.775467
Pb       7.58371      7.72209     13.02437         0.419931     -0.329010      0.335927
Pb       7.64285     11.54028      4.30991         0.561723     -0.403100      0.379394
Pb       7.75548     11.51316     17.41348        -0.395660      0.737023      0.015344
Pb       7.50091     11.59125      8.53852         0.715510     -0.305175      0.636281
Pb       7.76458     11.46377     13.00870        -0.214384      0.434722      0.336596
Pb      11.43636      3.79818      4.30388         0.103842     -0.515656     -0.255907
Pb      11.74817      3.89521      0.04909        -0.089404     -0.180886      0.261902
Pb      11.52758     15.23819      4.32531        -0.300171      0.736765      0.275045
Pb      11.32053     15.27182      0.01934         0.462797     -0.085065      0.186518
Pb      11.37521      3.87638      8.69534         0.549313      0.096501     -0.063857
Pb      11.53132     15.35222      8.73300        -0.296350      0.064353     -0.196599
Pb      11.61830      3.71511     13.07501        -0.764096      0.361848      0.082330
Pb      11.57674     15.34432     13.01092        -0.115466     -0.163217     -0.700929
Pb      11.50939      7.61730      4.33132        -0.218077      0.684916     -0.032581
Pb      11.55218      7.66432     17.38505        -0.509401      0.145313      0.126175
Pb      11.51086      7.70831      8.71279         0.044130     -0.519733      0.070140
Pb      11.36860      7.65164     13.10093        -0.030698     -0.323711     -0.709707
Pb      11.60194     11.43867      4.26081        -0.676587     -0.204374      1.093201
Pb      11.40874     11.39511     17.35207         0.210309      0.616162      0.388912
Pb      11.64294     11.46875      8.56179        -0.715103     -0.242451      0.711361
Pb      11.55088     11.45636     13.02027        -0.260075      0.300370     -0.240322
Ti       1.94077      1.93011      2.33308        -1.504933     -0.406026     -1.280772
Ti       1.86013      1.84346     15.42369        -0.800848      0.038974     -0.585154
Ti       1.83903     13.43291      2.21909        -0.151447      0.068019      0.056487
Ti       1.90490     13.38199     15.48757        -1.299861      0.047239     -0.273350
Ti      13.41928      1.93735      2.45069        -0.315717      0.011222     -2.013628
Ti      13.41985      1.91057     15.36947         0.329195      0.886646     -0.017311
Ti      13.33374     13.47996      2.21075         1.014794     -1.083052      0.239503
Ti      13.31209     13.51005     15.36651         0.251049     -0.444269      0.414299
Ti       1.87004      1.89285      6.82461        -0.827940     -0.588991     -0.027633
Ti       1.80831     13.38205      6.68619        -0.273280      0.844649      0.415665
Ti      13.32656      1.90168      6.67278         0.345783     -0.002564      0.181558
Ti      13.39079     13.40336      6.67526         0.391539      0.129215      0.700947
Ti       1.88767      1.78095     11.00845        -1.563175      0.051528     -0.094193
Ti       1.86825     13.30666     10.88167         0.043658     -0.362390      1.228575
Ti      13.44701      1.84837     11.02259         0.124290     -0.075219     -0.301741
Ti      13.41440     13.31207     10.94524        -0.175464      0.865059      0.608783
Ti       1.92239      5.71392      2.30540        -0.545047      0.461317     -0.505136
Ti       1.94782      5.72907     15.31572        -0.748315      0.628773      0.614033
Ti      13.52982      5.79622      2.49180        -0.759938     -0.648399     -0.266605
Ti      13.46708      5.81987     15.31552        -0.127698     -1.582814     -0.397043
Ti       1.94778      5.72637      6.81663        -0.673046     -0.312538     -1.600272
Ti      13.40265      5.70786      6.53020        -0.674736     -0.613188      0.616491
Ti       1.86234      5.65302     11.03866         0.596778      0.233521     -0.390533
Ti      13.36122      5.69263     11.05986        -0.095944     -0.363477     -1.474357
Ti       1.85143      9.64373      2.17785        -0.198349     -0.636067     -0.738277
Ti       1.91703      9.60481     15.49393        -0.706528     -0.384083      0.129353
Ti      13.39075      9.60960      2.27974        -0.439201      0.801932      1.588891
Ti      13.38775      9.66936     15.33945        -0.057021     -0.233067     -0.238350
Ti       1.93504      9.57384      6.65419        -1.271302      0.428999      0.581963
Ti      13.44008      9.44504      6.61441        -0.420930      1.007878      0.037002
Ti       1.98736      9.45042     11.03528        -0.844984      1.180582     -0.697071
Ti      13.46308      9.46577     11.16635        -0.114599      0.024285     -1.678454
Ti       5.68248      1.84000      2.28956         0.850845      1.108546     -0.185411
Ti       5.67260      1.94157     15.44063         0.996180      0.101573     -1.582203
Ti       5.79386     13.51283      2.43028        -0.285942     -1.118392     -1.458721
Ti       5.76295     13.48612     15.34885        -0.248895     -0.369093      0.907075
Ti       5.74767      1.90259      6.68621         0.287912     -1.008235     -0.601390
Ti       5.61000     13.36882      6.56482         0.356592      1.353484     -0.110549
Ti       5.65988      1.92656     10.87043         1.042633     -0.064271      1.931056
Ti       5.69662     13.36646     11.02905        -0.498952      0.980612      0.273060
Ti       5.69137      5.73772      2.35950         0.672500     -0.981551     -0.675470
Ti       5.71843      5.75511     15.46677         0.901785      0.190468     -1.167821
Ti       5.70253      5.64972      6.71293         0.285365     -0.316321     -0.937172
Ti       5.78809      5.67051     11.05677        -0.786313      0.522413     -0.403597
Ti       5.63461      9.59000      2.34243         1.218271     -0.097325     -0.490452
Ti       5.69411      9.57637     15.45576         0.382323      0.385603     -1.174327
Ti       5.64849      9.46709      6.66939         1.236500     -0.263033     -0.927555
Ti       5.79507      9.59857     11.06152        -0.559243      0.085605      0.255756
Ti       9.55489      1.84903      2.21986         0.127269      0.616710      1.180252
Ti       9.68671      1.94927     15.51702        -1.396144      0.291121     -1.787091
Ti       9.58318     13.38355      2.42343         0.129827      0.415854     -1.076292
Ti       9.57873     13.46782     15.23210        -0.549321     -0.314466      1.083252
Ti       9.56400      1.85661      6.69562         0.223301      0.102340     -0.386762
Ti       9.51871     13.43375      6.72725         0.640461      0.017856     -0.624156
Ti       9.56063      1.88756     10.96855        -0.289802      0.507819     -0.615895
Ti       9.47822     13.50504     11.02227         1.005745     -0.616287     -0.653929
Ti       9.59486      5.74713      2.30489        -0.344748     -0.903022     -0.990179
Ti       9.62601      5.71227     15.53397        -0.293304     -0.057949     -0.400863
Ti       9.48178      5.70617      6.57660         1.042477     -0.296083      2.726218
Ti       9.56309      5.65596     11.00148         0.778374      0.591972     -0.881440
Ti       9.50766      9.51812      2.30632         0.595218      0.827928     -0.417422
Ti       9.51025      9.59990     15.41399         1.068692      0.001275     -0.376744
Ti       9.49098      9.59434      6.82791         1.259815     -0.145245     -2.659620
Ti       9.60967      9.63520     11.06085         0.100540     -0.491878     -1.769472
O       1.76050      2.01476      0.57091         0.718940     -0.398650     -0.037714
O       1.88245      1.69462     13.58227         0.354959      0.786819      1.413274
O       1.82726     13.37543      0.42345        -0.062202      0.114486      0.833455
O       1.74231     13.45060     13.74799         0.357678     -0.484016     -0.951758
O      13.45749      2.05292      0.61906        -0.210455     -0.327199      1.558966
O      13.55559      1.93005     13.56353        -0.729372     -0.396441      0.791820
O      13.40706     13.50050      0.42053        -0.342259     -0.147509      0.883287
O      13.26499     13.56155     13.57036        -0.105230     -0.301620      1.088740
O       1.90679      1.85996      5.05998        -0.140103     -0.145964     -0.268427
O       1.83684     13.51857      4.88740        -0.032791     -0.408165      0.431661
O      13.28523      1.86034      4.88682         0.259034      0.015700     -0.004496
O      13.45755     13.42511      4.95041         0.027852     -0.067876     -0.348418
O       1.80242      1.85046      9.27064         0.443430      0.189233     -0.266386
O       1.81831     13.20873      9.16366         0.293495      0.290039     -0.202660
O      13.45564      1.89588      9.25235        -0.086464     -0.291308      0.801194
O      13.46233     13.33336      9.14875        -0.085639      0.053428      1.240198
O       1.88950      5.67946      0.49268         0.063183      0.137619      1.314706
O       1.88317      5.81028     13.53361         0.322697     -0.244210      0.484039
O      13.49422      5.63112      0.66308         0.063123      0.709066      0.671515
O      13.40118      5.66998     13.54099         0.008411      0.396084      0.975317
O       1.86415      5.81238      5.02829         0.329043     -0.385898      0.805207
O      13.43742      5.63753      4.71562        -0.256856      0.409459      1.380667
O       1.80982      5.63664      9.23121         0.046942      0.373486      0.823531
O      13.38206      5.68340      9.17214         0.191817      0.140127      2.518157
O       1.79439      9.65160      0.35190         0.175450     -0.207454      2.398083
O       1.75971      9.67937     13.72656         0.420274     -0.390287      0.044431
O      13.32472      9.58486      0.53091         0.352245     -0.288782     -0.306194
O      13.29290      9.47812     13.55734         0.177887      0.347407      0.189175
O       1.89295      9.51116      4.90663         0.088976      0.240372     -0.118833
O      13.33792      9.65180      4.85779         0.296242     -0.443687      1.048370
O       1.94655      9.40021      9.22880         0.347131      0.305444      0.949802
O      13.46713      9.47353      9.34704        -0.304760     -0.076391      0.800752
O       5.62930      1.89819      0.47350         0.121533     -0.139671      1.241230
O       5.57445      2.07255     13.60136        -0.245180     -0.690139      1.941267
O       5.95558     13.38238      0.64266        -0.691861      0.125565      0.423343
O       5.60386     13.51158     13.64916         0.189598     -0.101414     -0.612700
O       5.62018      1.83519      4.87761         0.338696      0.276406      0.969713
O       5.64225     13.43808      4.77232        -0.023963     -0.212670      0.889577
O       5.72250      1.86991      9.12630         0.012787     -0.054695     -0.033351
O       5.60185     13.45932      9.21852         0.529539     -0.776892      0.894679
O       5.60003      5.62227      0.56278         0.186418      0.357711      0.500278
O       5.71764      5.89125     13.67920        -0.324591     -0.455252      0.486180
O       5.59372      5.58364      4.87170         0.536411      0.452808      1.270447
O       5.89328      5.78289      9.30986        -0.180646     -0.172714     -0.182454
O       5.79466      9.78037      0.59115        -0.440662     -0.511518      0.092207
O       5.81021      9.47981     13.65003        -0.124477      0.268190      1.299289
O       5.66270      9.23002      4.91713         0.254079      1.161657      0.352751
O       5.72465      9.73287      9.28885        -0.121687     -0.563195      0.104929
O       9.49102      1.85734      0.46965         0.230298      0.010838     -0.390856
O       9.63214      2.08058     13.67738        -0.188832     -0.753060      1.172212
O       9.62126     13.37156      0.63125        -0.256192     -0.126758      1.191056
O       9.50462     13.44387     13.47478         0.558998      0.446901      0.405518
O       9.62900      1.72536      4.87329        -0.518489      0.509968      1.219806
O       9.36286     13.46307      4.93746         0.603043     -0.072390      0.574744
O       9.54470      1.87838      9.17017        -0.265116     -0.025935      0.893388
O       9.46905     13.51654      9.18602        -0.224394     -0.062668      1.213451
O       9.53403      5.81081      0.51716         0.209362     -0.209630      0.454020
O       9.62390      5.59809     13.75118         0.072249      0.487851      0.575673
O       9.37519      5.70109      4.82243         0.397641     -0.007764     -0.056083
O       9.57028      5.52345      9.20817        -0.274888      0.392710      1.011605
O       9.68472      9.68844      0.47617        -0.632776     -0.386043      1.543650
O       9.57030      9.54611     13.60962        -0.118962     -0.041554      0.368925
O       9.52420      9.58209      4.97697        -0.420987     -0.377886      1.672256
O       9.75101      9.63620      9.26932        -0.894054     -0.115120      0.337485
O       3.74534      1.80859      2.77769         1.347374      0.061116     -0.380746
O       3.72441      1.82047     15.95091        -0.041698      0.637668     -0.918815
O       3.81532     13.48854      2.61775        -0.527313     -0.614544      0.129659
O       3.71248     13.40087     15.72115         2.436947      0.475320      0.626292
O       0.03148      1.88365      2.76654        -0.796359     -0.286381      0.510016
O      15.30336      1.79558     15.85494         0.341493      0.818226     -0.595984
O      15.25576     13.37063      2.72721         0.573603      0.014152     -0.371976
O      15.20685     13.42404     15.71852        -0.334033     -0.096574      0.211716
O       3.82607      1.84552      7.10204        -0.265591      0.402678      0.130333
O       3.72742     13.37297      7.10113         1.222632      0.192341     -0.529583
O      15.22806      1.88922      7.07961         1.209776      0.231723     -0.188005
O      15.31948     13.36529      7.11783        -0.000892      0.069812     -0.300033
O       3.73923      1.93902     11.28942         0.654561     -0.556341      0.561885
O       3.75958     13.19839     11.45380         0.255658      0.663069     -0.290939
O      15.35839      1.87903     11.42238        -0.241640      0.077879      0.180202
O      15.33373     13.36764     11.44547        -0.554191     -0.561010     -0.404593
O       3.72795      5.74392      2.74612         0.596109     -0.437846      0.017475
O       3.81114      5.82320     15.89776         0.054239     -0.681763     -0.761281
O       0.01120      5.70438      2.78723         0.228985      0.154999     -0.182983
O       0.00944      5.70961     15.75171        -0.452752      0.551248     -0.225641
O       3.85654      5.59066      7.18274         0.156668      0.661084     -0.036337
O      15.26216      5.69036      7.08928         0.864018      0.152858     -0.525393
O       3.81287      5.83629     11.19192        -0.514562      0.038790      0.887847
O      15.32942      5.83421     11.52630        -0.130350     -0.720804     -0.496222
O       3.73386      9.60902      2.67630         0.030226     -0.173620     -0.164315
O       3.82580      9.59838     15.87491         0.450869     -0.121319     -0.292558
O      15.26527      9.62715      2.75520         1.063602      0.141334     -0.547699
O      15.28015      9.63573     15.86214        -0.398509     -0.108328     -0.386162
O       3.79848      9.52470      6.98808         0.726517     -0.086064      0.446122
O       0.00496      9.50731      6.96307        -0.104468     -0.125646      0.165947
O       3.88333      9.59327     11.53543        -0.565361     -0.244014     -0.391844
O      15.31984      9.48946     11.36690        -0.163590     -0.355233      0.582007
O       7.63120      1.84864      2.67228        -0.440417     -0.028324      0.005477
O       7.64581      1.85905     15.79791        -1.008657      0.303249     -0.218791
O       7.68691     13.48956      2.85636        -0.161034     -0.537434     -0.148704
O       7.63336     13.39256     15.69376         0.521638      0.606342     -0.091319
O       7.69686      1.89718      7.09388        -0.800739     -0.421640     -0.415110
O       7.53455     13.46042      6.99731         0.189548     -0.479144      0.232324
O       7.51973      2.00536     11.45172        -0.061540     -0.364501     -0.452604
O       7.61876     13.41889     11.50354        -0.491506     -0.136753     -0.548188
O       7.65026      5.68557      2.62715        -0.638903      0.080550      0.480874
O       7.58077      5.77804     15.78254         1.071678      0.010895      0.476863
O       7.64999      5.67926      7.24160        -0.090941     -0.042669     -1.181791
O       7.68768      5.49372     11.45500        -0.349992      1.219480     -0.256261
O       7.59162      9.33647      2.62631         0.163301      0.949458      0.241283
O       7.67737      9.67432     15.89364        -0.586483     -0.568220     -0.376304
O       7.61963      9.54563      7.21899        -0.720786      0.372201     -0.491145
O       7.68015      9.62250     11.43807        -0.088567      0.145326      0.050585
O      11.41096      1.90706      2.73716         1.296481      0.188202     -0.185520
O      11.47646      2.02338     15.76767         1.201642     -0.359250      0.219363
O      11.49428     13.37486      2.86123        -0.740785     -0.025436     -0.682023
O      11.37560     13.34679     15.96199         0.573242      1.053207     -1.307062
O      11.47507      1.97031      7.15447         0.021846     -0.960645     -0.193638
O      11.50555     13.43846      7.05526        -0.414016     -0.282768     -0.138119
O      11.40380      1.75169     11.24714         1.535585      0.017203      0.628313
O      11.45942     13.59150     11.35149         0.122976     -0.122399     -0.107578
O      11.48046      5.63005      2.70392         0.278621      0.716034      0.153211
O      11.56692      5.74880     15.87737        -0.474897      0.398503     -0.254212
O      11.49513      5.71686      7.12196        -0.460798      0.243427     -1.244810
O      11.42521      5.65664     11.44843         0.354677     -0.375051      0.059880
O      11.47689      9.55455      2.83790        -0.492511     -0.377353     -0.685762
O      11.51361      9.54220     15.81846        -0.084512      0.028498     -0.302945
O      11.47493      9.49148      7.13009         0.740023      0.255012     -0.339519
O      11.40265      9.49636     11.40735         1.296672      0.231046      0.959636
O       1.93135      3.75670      2.79745        -0.192706      1.116852     -0.072140
O       1.86389      3.87174     15.75840         0.498667     -1.131917     -0.634851
O       1.79996     15.28521      2.60712         0.297849      0.239870      0.229943
O       1.73890     15.28557     15.79239         0.870114      1.196745      0.499989
O      13.52357      3.79073      2.84465        -0.619677      0.157685     -0.127699
O      13.34766      3.83726     15.80022         0.726871      0.164633     -0.325213
O      13.28446     15.26366      2.71356         0.587629      1.294040     -0.052207
O      13.28000      0.09238     15.91119        -0.144259     -1.136892     -0.688027
O       1.97191      3.82958      7.25173        -0.644255     -0.736568     -0.728458
O       1.86310     15.29090      7.24696        -0.025518      0.398940     -0.634978
O      13.35193      3.79881      7.16761         0.139367      0.485725     -1.160302
O      13.47045     15.33594      7.18361        -0.864475     -0.185519     -0.665854
O       1.85069      3.76081     11.61559         0.437868      0.529551     -0.986970
O       1.80083     15.16541     11.39533         0.816753      1.283951     -0.194638
O      13.36766      3.75137     11.50930         0.495942      0.062955     -0.501618
O      13.54635     15.26753     11.47176        -0.729886      0.545131     -0.539376
O       1.81047      7.66557      2.69792         0.190874      0.582774     -0.509021
O       1.90458      7.63784     15.81945        -0.191934      0.150709     -0.116446
O      13.36797      7.75558      2.94321         0.488569     -1.254907     -1.255400
O      13.45263      7.67405     15.75290        -0.035343      0.121225      0.084073
O       1.97040      7.64137      7.14840         0.002857     -0.211917     -0.146187
O      13.46568      7.57756      7.06244        -0.320755      0.481405     -0.667444
O       1.89247      7.64008     11.47268        -0.021589     -0.261951      0.059493
O      13.22196      7.47559     11.48514         0.531614      2.105951      0.142037
O       1.89687     11.51753      2.79943        -0.167380     -0.217553     -0.660034
O       1.96190     11.49726     15.88156        -0.670682     -0.095520     -0.234521
O      13.29684     11.53738      2.75499         0.691473     -0.552307     -0.782437
O      13.26202     11.56424     15.77244         0.526727     -0.549420     -0.666964
O       1.90019     11.50583      7.12167         0.000506     -1.237044     -0.688706
O      13.51744     11.44545      7.18222        -0.652246     -0.517321     -1.004413
O       1.78464     11.38865     11.47568         0.549539      0.142178     -0.319949
O      13.30220     11.45731     11.44806         0.148526      0.012325     -0.215413
O       5.70459      3.74751      2.81914        -0.370475     -0.150920     -0.472761
O       5.76231      3.83437     15.89684        -0.785554     -0.151038     -0.447052
O       5.69740     15.32927      2.78866         0.141051      0.898634     -0.334210
O       5.64223      0.05340     15.86382         0.041036     -1.011663     -0.445957
O       5.77539      3.74012      7.10407        -0.190542      0.696733     -0.049203
O       5.70536     15.30106      7.03353        -0.199404     -0.310551     -0.156690
O       5.53021      3.84555     11.35953         0.101214     -0.678244     -0.098134
O       5.68130     15.28682     11.43314        -0.241431      0.441033     -0.344452
O       5.60978      7.55365      2.70454         0.065720      1.073397     -0.173461
O       5.78405      7.69242     15.93722        -0.518014      0.205267     -0.207363
O       5.75840      7.53051      7.02982        -0.211998      1.010044      0.384161
O       5.81709      7.69866     11.60650        -0.170072     -0.272763     -1.215038
O       5.72114     11.47873      2.81789         0.127261     -0.252470     -0.079106
O       5.75864     11.51302     15.80688        -0.411876      0.298523     -0.222538
O       5.64981     11.43154      6.99339         0.309769      0.381202     -0.429979
O       5.72410     11.50661     11.68438         0.533386     -0.331859     -0.964219
O       9.57741      3.78084      2.72373        -0.556442      0.210012      0.011424
O       9.52470      3.82727     15.92675         0.022179      0.946845      0.020030
O       9.64080     15.33834      2.68528        -0.301455     -0.701980      0.021243
O       9.61652      0.00292     15.85431        -0.237271     -0.645419     -0.702551
O       9.60154      3.76526      7.06604        -0.474826      1.032097     -0.717371
O       9.62846     15.32299      7.18019        -0.421166     -0.318460     -0.341083
O       9.57567      3.72433     11.53370         0.382006      0.387652     -0.588608
O       9.37268      0.06514     11.46549         0.162158     -0.855781     -0.128485
O       9.51667      7.64544      2.71987         0.769305     -0.336247      0.145869
O       9.58969      7.75938     15.98403        -0.196138     -1.092287     -0.780889
O       9.51084      7.61144      7.12259        -0.059155     -0.194884     -0.310136
O       9.55175      7.59332     11.26814        -0.445698      0.037573      0.579547
O       9.55804     11.39690      2.88167        -0.687333      0.546585     -0.732034
O       9.58382     11.52867     15.68345        -0.099375     -0.015928      0.041178
O       9.56689     11.51674      7.15704        -0.386306      0.117369     -0.237861
O       9.63895     11.61157     11.46320        -0.296293     -0.800959     -0.121308
