  # total energy = -7882.06063993 
CRSYTAL
PRIMVEC
    15.3600000000000000    0.0000000000000000    0.0000000000000000
     0.0000000000000000   15.3600000000000000    0.0000000000000000
     0.0000000000000000    0.0000000000000000    17.440000000000000
PRESSURE
0.798264 1.04015 -0.935593 0.270648 0.224698 -0.022325
PRIMCOORD
320 1
Pb       3.76829      3.86710      4.22997         0.164009     -0.300874      0.231234
Pb       3.77780      3.87562     17.33748        -0.001359     -0.186990     -0.301041
Pb       3.83162      0.01714      4.23382         0.407502     -0.173900     -0.452807
Pb       3.92377      0.08426      0.02809        -0.413501     -0.128836      0.231531
Pb      15.22861      3.87569      4.28975         0.710947     -0.101290      0.584854
Pb      15.23023      3.80237     17.40679         0.638413      0.041143     -0.225653
Pb      15.22198     15.28445      4.30022         0.133567     -0.045779     -0.134147
Pb       0.00100     15.32367      0.02686         0.361128      0.230594     -0.379824
Pb       3.88002      3.84617      8.64458         0.247798     -0.351127      0.308826
Pb       3.78668     15.26457      8.78918         0.490511      0.416598     -0.250410
Pb       0.10981      3.66994      8.66757         0.021747      0.153366     -0.057336
Pb       0.12494     15.33243      8.60420        -0.235811      0.483407      0.503875
Pb       3.76205      3.91910     13.08499        -0.019904     -0.152397     -0.654090
Pb       3.91740     15.26944     13.24575        -0.241170     -0.032340     -0.984881
Pb      15.24912      3.84048     13.00847         0.274808     -0.068439     -0.092166
Pb       0.00253      0.04833     12.99963        -0.180999     -0.123025      0.048454
Pb       3.82064      7.63089      4.26383        -0.467808      0.549182      0.824746
Pb       3.80604      7.76208      0.00579         0.003153     -0.584005     -0.244553
Pb      15.24568      7.50027      4.33683         0.570805      0.569674     -0.156115
Pb       0.08089      7.71297     17.37891        -0.903436     -0.124521      0.139667
Pb       3.87798      7.53987      8.73966         0.083793      0.275188     -0.315968
Pb      15.35281      7.64754      8.72792         0.086720      0.450518     -0.374895
Pb       3.78751      7.79406     13.07827        -0.080144     -0.617600     -0.641586
Pb       0.03586      7.71466     12.91291        -0.481233     -0.254702      0.550386
Pb       3.78691     11.43610      4.29948         0.335565      0.261783      0.101534
Pb       3.80378     11.40583     17.42853        -0.196842      0.945176      0.342296
Pb      15.35817     11.46341      4.27506        -0.233295      0.274796     -0.108344
Pb       0.05449     11.41439      0.02609        -0.532423      0.344860      0.115444
Pb       3.70691     11.51283      8.68942         0.416957      0.311726     -0.484468
Pb       0.04964     11.50234      8.61993         0.138905     -0.058219      0.011528
Pb       3.76092     11.55924     13.03305         0.031954      0.286397      0.064665
Pb      15.18755     11.42427     13.10716         0.063571      0.537459     -0.189742
Pb       7.61354      3.89296      4.36114         0.163467     -0.050327     -0.658250
Pb       7.68788      3.86563     17.27847        -0.585981      0.015093      0.676518
Pb       7.61653      0.05907      4.18370         0.244389     -0.534232      0.464244
Pb       7.77738     15.30741     17.43769        -0.276287      0.186157      0.064627
Pb       7.69685      3.69031      8.74384        -0.017778      0.399082     -0.139726
Pb       7.64695     15.30500      8.64836         0.151895     -0.066649      0.024937
Pb       7.52329      3.69515     13.10650         0.641523      0.994259      0.253845
Pb       7.66090     15.14095     13.17256        -0.410799     -0.087816     -0.600152
Pb       7.57120      7.72070      4.32944         0.274794      0.336415     -0.128095
Pb       7.79874      7.53506     17.39558        -0.203051      0.090570      0.076165
Pb       7.55139      7.67648      8.67931         0.310688     -0.324674      0.366673
Pb       7.62043      7.60949     12.99210         0.564988      0.089960      0.662868
Pb       7.67413     11.52763      4.28337        -0.036358     -0.439779      0.285648
Pb       7.72412     11.47064     17.43726         0.159806     -0.016550     -0.303809
Pb       7.69645     11.37868      8.74539        -0.721587      0.899662      0.062143
Pb       7.58660     11.44220     13.10859         0.281160      0.607313     -0.209177
Pb      11.50912      3.87018      4.40148        -0.121230     -0.169832     -0.030771
Pb      11.34113      3.80664     17.29127         0.826108      0.089940      0.014154
Pb      11.40329      0.13078      4.25902         0.320375     -0.665115      0.859933
Pb      11.69527      0.01784     17.31427        -0.374022     -0.293872     -0.203397
Pb      11.61545      3.76461      8.74467        -0.314275     -0.265596     -0.577012
Pb      11.48826     15.21636      8.62829        -0.068382      0.575819     -0.127506
Pb      11.43383      3.89451     12.98409         0.586575     -0.351924      0.478764
Pb      11.46196     15.29072     13.02534         0.833660      0.444615      0.283534
Pb      11.48623      7.72979      4.34732        -0.306321      0.437397      0.154076
Pb      11.48746      7.60852     17.37983         0.329706      0.344672     -0.328349
Pb      11.42487      7.57503      8.70156         0.107145      0.454537     -0.098089
Pb      11.60927      7.74872     12.85920        -0.196989     -0.286127      1.132583
Pb      11.41754     11.53901      4.43165         0.215218     -0.362679     -0.384834
Pb      11.64347     11.55972      0.00784        -0.608660     -0.194638     -0.176240
Pb      11.39218     11.52456      8.75988         0.143420      0.088560     -0.190795
Pb      11.38253     11.49470     13.00021         0.204029      0.020431      0.397435
Ti       1.82848      1.94096      2.38426         0.901227     -0.603298     -1.780072
Ti       1.94104      1.81897     15.36292         0.220687      1.385683      0.194427
Ti       1.95277     13.43183      2.29063         0.146195     -0.773267      0.702265
Ti       1.90998     13.41922     15.49238        -0.185472     -0.013460      0.153181
Ti      13.38008      1.94520      2.32924         1.516907     -0.215828      0.021231
Ti      13.52659      1.97978     15.38027         0.008255     -0.671286     -0.819558
Ti      13.36973     13.45189      2.26331         1.157117     -0.412692      1.104920
Ti      13.49695     13.44399     15.34985        -0.369087     -0.382328     -0.433850
Ti       2.09784      1.93659      6.60636        -0.365931      0.780403      0.778803
Ti       1.95766     13.53975      6.53956         0.558602     -0.757002      1.211840
Ti      13.51232      1.85730      6.74318        -0.515245      0.651445     -1.842482
Ti      13.48410     13.38667      6.72525        -0.742535      0.541892     -1.304316
Ti       2.04838      1.90775     11.09377        -0.396866     -0.361550      0.253191
Ti       1.79739     13.42751     11.00471         0.782320      0.558237      1.460943
Ti      13.44724      1.93792     10.99712         0.807001     -0.770133      0.760158
Ti      13.40571     13.49963     10.90606         1.288722     -0.194347      1.810209
Ti       1.94287      5.75427      2.19760        -1.695523      0.332846      1.303094
Ti       1.83375      5.72868     15.30919         0.588131     -0.467229      0.252265
Ti      13.37932      5.69349      2.25060         0.500882      1.059404     -0.988523
Ti      13.48427      5.76364     15.37927        -0.813769      1.128363      0.376099
Ti       1.89882      5.82688      6.77416         0.281471     -0.752491     -1.268085
Ti      13.42224      5.77515      6.75325         0.516264     -0.223134      0.702516
Ti       1.88865      5.78836     10.98999         0.604614     -0.288173      0.991488
Ti      13.39448      5.80485     10.86348         1.244945     -0.528016      0.721353
Ti       1.78635      9.55652      2.32961         0.609631     -0.092505      0.807024
Ti       1.87993      9.57031     15.38140        -1.031248      0.960798     -0.868062
Ti      13.34843      9.61873      2.30442        -0.195320      0.281843     -1.697641
Ti      13.36425      9.61502     15.44634         0.067454     -0.267520     -0.068257
Ti       1.87549      9.60693      6.60983        -0.402673      0.037060     -0.518427
Ti      13.36093      9.65094      6.74529         0.627933     -0.614712     -0.214965
Ti       1.84314      9.66776     10.95964         0.189784     -1.316717     -0.406529
Ti      13.41005      9.69112     10.91329        -0.008545     -0.348820      0.648478
Ti       5.80909      1.93807      2.24345        -0.608737      0.379060     -0.030358
Ti       5.79639      1.90206     15.44894        -0.433928     -0.134086      3.160775
Ti       5.87019     13.37447      2.28826        -1.092281      0.263566      0.949575
Ti       5.73752     13.40340     15.55404        -0.182070      0.270913     -1.183912
Ti       5.87401      1.84477      6.64170        -1.132247      0.061020      1.551406
Ti       5.77731     13.43808      6.67784         0.151287     -0.908137     -0.507569
Ti       5.83676      1.93615     11.01216        -1.771078     -0.472093     -0.292523
Ti       5.68809     13.47501     10.99091         0.221350      0.242453      0.617122
Ti       5.73521      5.75756      2.34500         1.122038     -0.467320     -1.433651
Ti       5.71294      5.82815     15.38167        -0.012437     -0.850872     -0.154512
Ti       5.84817      5.65684      6.65028        -0.392352      0.780879      0.505982
Ti       5.77341      5.80924     11.05025        -0.679187     -0.902165     -1.032256
Ti       5.63498      9.57609      2.27514         0.893867     -0.121659      0.281801
Ti       5.71989      9.57207     15.42455         0.678514      0.373151     -0.232936
Ti       5.64477      9.58918      6.76711         0.503837      0.168695     -2.022496
Ti       5.71568      9.63399     11.09830        -0.063475      0.463520     -0.172568
Ti       9.65739      1.91370      2.23024        -0.762594      0.283163      0.010891
Ti       9.61019      1.84290     15.35430         0.084052      0.158851     -0.345007
Ti       9.70791     13.38618      2.29988        -0.902229     -0.396433     -0.680981
Ti       9.62024     13.42027     15.46539         0.731788     -0.565518     -0.704336
Ti       9.66131      1.94586      6.59744        -0.768867     -0.511766      0.783070
Ti       9.57148     13.43155      6.68135        -0.542944      0.471578      0.257485
Ti       9.58437      1.94283     11.07972         0.227717     -0.096500      0.453806
Ti       9.67822     13.52196     11.02465        -1.971751     -1.335660     -0.831130
Ti       9.61444      5.72695      2.39693        -1.070264      0.204086      0.383609
Ti       9.65029      5.64575     15.32681        -0.107402      1.194352     -1.825113
Ti       9.61225      5.74990      6.63248        -0.799280     -0.074177     -0.646627
Ti       9.59262      5.71366     10.98687        -0.994873      0.289011      2.124869
Ti       9.55909      9.51035      2.25137        -0.393102      0.863074     -0.049658
Ti       9.56248      9.55824     15.43515         0.721880     -0.075571     -1.199326
Ti       9.58475      9.60159      6.86704        -0.709020     -0.355961     -2.422906
Ti       9.55018      9.58488     11.11107         0.001306      0.265336      0.671731
O       1.82847      1.86789      0.57550         0.026276      0.414280      1.367996
O       2.05806      1.76741     13.60605        -0.138487      0.240321     -0.344532
O       1.84321     13.29348      0.55625         0.064032      0.517846     -0.244905
O       2.01617     13.27391     13.74055        -0.274093      0.552198      0.288695
O      13.61740      2.01175      0.56498        -0.773140     -0.219474     -0.224128
O      13.52357      1.92216     13.64462         0.001407     -0.063173     -0.234889
O      13.36829     13.50738      0.51667         0.089086      0.104472      0.236218
O      13.54523     13.36858     13.55654        -0.526415     -0.128011      1.051859
O       2.09638      1.93062      4.85295        -0.032298      0.045668     -0.694630
O       1.93633     13.52177      4.79641        -0.017270     -0.009761      0.097027
O      13.32454      2.03625      4.89038         0.564506     -0.494336      1.685609
O      13.37177     13.30145      4.90061         0.466686      0.483375      1.583807
O       2.01345      1.92155      9.31864        -0.173143      0.121360      0.308776
O       2.02460     13.41702      9.27416        -0.493772      0.160788     -0.475526
O      13.48472      1.83182      9.24768        -0.024244      0.289186     -1.035487
O      13.46333     13.56392      9.15672        -0.174746     -0.133367      0.026340
O       1.89980      5.80222      0.47837         0.093473     -0.183879     -0.676102
O       1.85200      5.75520     13.52477         0.169797      0.252910      1.293826
O      13.45356      5.72798      0.44146        -0.372622     -0.266368      1.824046
O      13.44492      5.84161     13.65261         0.008259     -0.092212     -0.669797
O       1.87062      5.72549      4.96544        -0.179925      0.115888      1.056048
O      13.68104      5.66202      4.98423        -0.997053     -0.004728      0.288669
O       2.00039      5.94707      9.22748        -0.305635     -0.546470     -0.430759
O      13.34755      5.86201      9.04504         0.074596     -0.363919      1.729318
O       1.70685      9.60720      0.56517         0.823915     -0.161565     -0.621140
O       1.79112      9.69039     13.55397         0.349811     -0.450163      1.408028
O      13.27414      9.61052      0.42444         0.376586     -0.159305      2.710352
O      13.43804      9.70675     13.62692        -0.157562     -0.031022      0.526386
O       1.74644      9.54098      4.81377         0.389777      0.295144      1.156458
O      13.26510      9.66824      4.97948         0.361082      0.286903      0.146806
O       1.77295      9.60213      9.14239         0.366213      0.018457      1.398173
O      13.36522      9.46948      9.18822         0.147200      0.349220     -0.405047
O       5.88495      1.98839      0.49969        -0.579150      0.069508     -0.443171
O       5.75972      1.80016     13.78168        -0.027223      0.115841     -2.328734
O       5.89530     13.30265      0.54368         0.073331      0.002466      0.033333
O       5.70264     13.52441     13.72116         0.097547     -0.018970      1.088333
O       5.74448      1.98009      4.92780         0.254654     -0.270371     -0.996438
O       5.85288     13.49825      4.89121        -0.186530     -0.098645      0.325744
O       5.91488      1.79954      9.25522        -0.006107      0.251047      0.109010
O       5.61256     13.39918      9.21810         0.234783      0.115473      0.631306
O       5.87860      5.73137      0.54633        -0.546969      0.057014      0.698174
O       5.77339      5.75325     13.59336        -0.331904      0.354125      0.933208
O       5.82515      5.74269      4.85850        -0.092156     -0.082284      0.436880
O       5.93870      5.88833      9.21722        -0.892726     -0.238944      1.381312
O       5.60665      9.59688      0.47577         0.191150      0.120078      0.848851
O       5.79442      9.57025     13.63370        -0.296701      0.068914      0.858737
O       5.70364      9.52790      4.90959         0.080715     -0.116706      1.461789
O       5.74472      9.66513      9.32250        -0.312772     -0.225256      0.527967
O       9.89815      1.85662      0.45344        -0.862706      0.444921      1.094531
O       9.50476      1.95831     13.59028         0.305104     -0.445710      0.083488
O       9.76116     13.40119      0.51328        -0.598145      0.175099      0.579271
O       9.65526     13.44486     13.63558        -0.107103      0.343660      0.599207
O       9.66631      1.92247      4.84602        -0.085791      0.273799     -0.499603
O       9.59524     13.45454      4.93474         0.139353     -0.449548     -0.558643
O       9.48522      1.85336      9.35488         0.138245      0.198948     -0.427714
O       9.64198     13.45022      9.19366         0.253838      0.315248      1.644462
O       9.58948      5.83373      0.62941         0.185093     -0.366879     -0.676023
O       9.64771      5.49958     13.53716        -0.087844      0.772728      0.958814
O       9.66959      5.77939      4.78760        -0.401025     -0.231022      1.778892
O       9.46636      5.73435      9.29499         0.519955     -0.081297     -0.861542
O       9.55927      9.40740      0.46614         0.017427      0.346727      0.199968
O       9.55727      9.68660     13.61074         0.260449     -0.160763      0.632670
O       9.65500      9.58920      5.03509        -0.493645      0.044658      1.542171
O       9.61777      9.66015      9.38448        -0.082867     -0.080343     -1.432809
O       3.91949      2.02515      2.70560        -0.889664     -0.592710     -0.085072
O       3.83067      1.86126     15.94550         1.117741      0.445959     -0.309248
O       3.92273     13.38857      2.67465        -0.151859      0.154345     -0.054182
O       3.83886     13.48440     15.98257        -0.205431     -0.269948     -0.258528
O      15.30421      1.88977      2.79427         0.453756     -0.057648     -0.006268
O       0.10471      1.97306     15.76841        -1.070031     -0.199221      0.263839
O      15.33931     13.48572      2.74509        -0.175264     -0.094359     -0.215895
O      15.32934     13.49260     15.86508         0.981636     -0.277439     -0.145343
O       3.91001      1.94397      7.20898         0.606065      0.068784     -0.626820
O       3.81868     13.39299      7.12450        -0.273422      0.432791     -0.528956
O       0.13168      1.86420      6.99520        -1.122926      0.370768      0.188808
O       0.08344     13.50954      7.14668        -0.166203     -0.202158     -0.835915
O       3.89314      1.90194     11.45179        -0.435984     -0.239276      0.240151
O       3.72946     13.51739     11.53402         0.739931     -0.555044     -0.225103
O       0.00151      1.92964     11.46225         0.457034      0.022901      0.023029
O      15.30130     13.48778     11.51078         0.322156     -0.689249     -0.918341
O       3.72769      5.90493      2.67430         1.245667     -0.874272     -0.231657
O       3.79850      5.89036     15.83811         0.214630     -0.600483     -0.414904
O      15.28799      5.71026      2.71549        -0.259669      0.147643     -0.268236
O      15.31980      5.75377     15.84602         1.614323      0.326091     -0.343229
O       3.88940      5.76563      7.14002         0.216492     -0.216936     -0.278693
O       0.00879      5.67734      7.23978        -0.275866      0.443112     -0.385709
O       3.83756      5.93440     11.42690         0.031498     -0.083087      0.065640
O      15.33973      5.78025     11.39198        -0.656120     -0.253353     -0.679024
O       3.74142      9.58289      2.84512         0.709357     -0.762169     -0.895693
O       3.75203      9.68233     15.90565         0.208385     -0.557396     -0.897782
O      15.34130      9.72691      2.70211        -1.974903     -0.447419     -0.077458
O      15.28760      9.56135     15.91493         0.787207      0.571527     -0.710455
O       3.74286      9.59541      7.01162         0.461494      0.093198      0.285927
O      15.29100      9.60998      7.10468         0.158687      0.055671     -0.160697
O       3.81593      9.56072     11.49856        -0.313884      0.067646     -0.460253
O      15.27632      9.59838     11.35917         0.952751      0.031263     -0.085388
O       7.66546      1.88689      2.54368         1.387616      0.379736      0.494286
O       7.68057      1.92849     15.86260         0.646462     -0.338340     -0.313699
O       7.78978     13.40911      2.75566        -1.299429     -0.013292     -0.334077
O       7.70371     13.42206     15.84770         0.260747     -0.142394      0.097327
O       7.71106      1.87091      7.11348         0.643033     -0.247557     -0.312464
O       7.67276     13.34873      7.09750         0.016267      0.436944      0.126321
O       7.61582      2.03811     11.54746         1.105785     -0.383759     -0.376562
O       7.58609     13.45304     11.49836         0.768533      0.337643     -0.287448
O       7.70738      5.77281      2.70345        -0.846820      0.120815      0.471019
O       7.75062      5.73764     15.78618        -0.774447      0.352188     -0.164669
O       7.70890      5.80846      7.07240        -0.068357     -0.162353     -0.545340
O       7.59087      5.71416     11.51498         0.968367     -0.073069     -0.147388
O       7.60985      9.63623      2.67272        -0.193980     -0.639082     -0.129446
O       7.67650      9.55811     15.80913        -0.647978      0.245238      0.062536
O       7.57031      9.59183      7.27446         1.147859     -0.085329     -0.621435
O       7.71022      9.65708     11.47477        -1.191471     -0.002173      0.050264
O      11.58384      2.02168      2.80251        -1.800209     -0.275087     -0.602528
O      11.60915      1.94968     15.71243        -0.726427     -0.099277      0.192594
O      11.51929     13.36833      2.75799        -0.019136      0.508585     -0.022784
O      11.55521     13.46016     15.86357        -0.105704      0.466465     -0.521293
O      11.47743      1.88505      7.04474         0.766082      0.173664      0.420825
O      11.50957     13.38215      7.15520         0.289264      0.065036     -0.314235
O      11.60179      1.95594     11.37285        -1.723107     -0.178423      0.174432
O      11.54211     13.46579     11.47502        -0.557417      0.022062     -0.580868
O      11.45004      5.77604      2.78723         1.916680     -0.267859     -0.307350
O      11.54337      5.71847     15.80335        -0.515328     -0.448488     -0.060318
O      11.45693      5.66218      7.17641         0.595740      0.112633     -0.524352
O      11.58230      5.70216     11.44319        -0.511077      0.451530     -0.896277
O      11.42571      9.60226      2.80995         0.785433      0.247886     -0.434073
O      11.46350      9.57904     15.83045         0.084937      0.128304     -0.266879
O      11.46807      9.60214      7.12452        -0.044602      0.306788      0.615466
O      11.53506      9.63567     11.35477        -0.411529     -0.144646      0.420214
O       1.94636      3.83484      2.61337        -0.227057      0.396420      0.208103
O       2.01774      3.82717     15.63975        -0.004440      0.921671      0.270560
O       1.98084     15.29529      2.62470        -0.074129      1.084021      0.367732
O       1.98142      0.07465     15.92368        -0.396861     -2.219903     -0.021296
O      13.44292      3.84937      2.72744        -0.384713      0.447869     -0.201569
O      13.56238      3.87571     15.59836        -0.292804     -0.552711      0.870636
O      13.36859      0.03975      2.78920        -0.039862     -0.351634     -0.496478
O      13.53491     15.31167     15.70888        -0.370515      1.210809      0.455183
O       2.00326      3.83957      7.21757        -0.287612      0.018259     -0.431832
O       2.05344      0.11806      7.11750        -0.269517     -1.804888     -0.478732
O      13.42836      3.75649      7.18434         0.074098      0.226891     -0.014263
O      13.48378     15.33053      7.09386        -0.196805      0.290158     -0.327611
O       1.99357      3.89179     11.55295        -0.207615     -0.393717     -0.683043
O       1.85920     15.30177     11.45746         0.143248      0.507766     -0.355930
O      13.50150      3.80780     11.44455        -0.373492      1.410537     -0.809893
O      13.44264     15.33137     11.49482        -0.271384      0.304824     -0.348906
O       1.71598      7.66198      2.69735         0.464618     -0.424649     -0.167555
O       1.89765      7.74265     15.81829        -0.051453     -0.640330     -0.387495
O      13.31934      7.75855      2.78320         0.671884     -0.953805     -0.441892
O      13.42684      7.74521     15.81213        -0.198382     -0.702651     -0.146252
O       1.93307      7.71518      7.01121        -0.415184     -0.415122      0.312817
O      13.34673      7.67434      6.99542         0.134078     -0.469473      0.040130
O       1.86093      7.62307     11.46896         0.090562      1.649195     -0.269905
O      13.49085      7.66677     11.45537        -0.598521     -0.148949     -0.919059
O       1.98878     11.44226      2.71638        -0.491500      1.161647      0.181768
O       1.79739     11.52852     15.88064         0.513649     -0.519499     -0.195147
O      13.41986     11.55675      2.68144        -0.211282     -0.485455     -0.173750
O      13.38754     11.56578     15.97772         0.561517     -0.403466     -1.113231
O       1.92360     11.57500      7.06091        -0.468772     -0.150951     -0.440236
O      13.43238     11.58335      7.21699         0.078074     -0.926147     -0.232812
O       1.93219     11.44181     11.32801        -0.146972      1.095171      0.078901
O      13.45286     11.55643     11.33940        -0.224570     -0.063353     -0.427876
O       5.77528      3.89107      2.76453        -0.090576     -0.128054     -0.018071
O       5.80764      3.89534     15.74090        -0.490904     -0.213064      0.120807
O       5.78022      0.01192      2.65685         0.025681     -0.524948     -0.187357
O       5.84484     15.28596     15.97896        -0.265193      0.937730     -0.221917
O       5.95413      3.75325      7.08351        -0.745135      1.186060     -0.154929
O       5.80421     15.30211      7.11333        -0.238839      0.492438     -0.202250
O       5.51935      3.87377     11.22800         0.905299      0.274090      0.744610
O       5.77266      0.04579     11.46647        -0.097233     -0.677788      0.085146
O       5.68292      7.61673      2.72439         0.272124      1.088527     -0.024407
O       5.63498      7.71567     15.89319         0.590297     -0.119164     -0.520138
O       5.77904      7.65865      7.15142        -0.347675     -0.099570     -0.382552
O       5.80037      7.76001     11.59585        -0.216421     -0.182170     -0.773318
O       5.68847     11.40887      2.79224         0.374408      1.016803     -0.501755
O       5.71514     11.52621     15.80148         0.240272     -1.050266      0.197104
O       5.77616     11.50998      7.04673        -0.489946     -0.429749      0.235331
O       5.70190     11.61283     11.61143        -0.098038     -1.046047     -0.734400
O       9.54466      3.81313      2.72346         0.429625     -0.597433     -0.255925
O       9.55349      3.74974     15.61919         0.542926      0.340806      1.182487
O       9.52408     15.35119      2.66623         1.016305      0.609770     -0.107147
O       9.58847      0.00677     15.89322         0.277019     -0.079598     -0.560281
O       9.52243      3.84792      7.11184         0.330055     -0.229268     -0.374010
O       9.58456     15.33873      6.93942         0.117205      0.267025      0.538761
O       9.58917      3.85460     11.43528         0.075535     -0.362408     -0.313632
O       9.59891      0.03443     11.47843        -0.062531     -0.320036      0.026546
O       9.55055      7.72100      2.76922         0.136315     -0.586208      0.069069
O       9.66322      7.58561     15.67310        -0.323259      0.480461      0.232348
O       9.58154      7.63000      7.18926         0.246404      0.340909     -0.294322
O       9.52832      7.64650     11.44478         0.522947     -0.053275     -0.167822
O       9.52553     11.46427      2.67828         0.405675      0.427105     -0.020280
O       9.68992     11.55841     15.76319        -0.618697     -0.791271      0.342395
O       9.50711     11.52656      7.21040         0.730408     -0.859487     -0.155221
O       9.50400     11.61450     11.42882         0.800269     -0.218989      0.078652
