  # total energy = -7882.38514265 
CRSYTAL
PRIMVEC
    15.3600000000000000    0.0000000000000000    0.0000000000000000
     0.0000000000000000   15.3600000000000000    0.0000000000000000
     0.0000000000000000    0.0000000000000000    17.440000000000000
PRESSURE
1.34403 1.40685 1.66086 -0.263434 -0.383067 -0.054733
PRIMCOORD
320 1
Pb       3.84627      3.85378      4.25302        -0.256880     -0.341827      0.192974
Pb       3.76670      3.89620     17.37475        -0.076058     -0.114297     -0.266451
Pb       3.88780     15.35368      4.24312        -0.694151     -0.026687      0.294276
Pb       3.97067     15.35671      0.02655        -0.724829      0.101549     -0.287360
Pb      15.27681      3.92911      4.30882         0.194237     -0.530564     -0.513021
Pb      15.21132      3.71306     17.35629         0.102909      0.725142      0.165582
Pb      15.27060     15.34653      4.37603         0.416876      0.005909     -0.302763
Pb       0.16025      0.03912     17.38400        -0.610923     -0.546114      0.228973
Pb       3.98120      3.88493      8.58759        -0.745687     -0.379122      0.270501
Pb       3.79322     15.27597      8.70355        -0.016744      0.335926     -0.051090
Pb       0.16013      3.71844      8.68451         0.289601     -0.180973     -0.239348
Pb       0.15658     15.29153      8.59377        -0.269768      0.212743      0.648674
Pb       3.91216      3.94271     13.08766        -0.525532     -0.094566     -0.025776
Pb       4.02605      0.02173     13.21698        -0.617618     -0.358948     -0.389140
Pb      15.26519      3.89633     12.93437         0.249936     -1.046017      0.964934
Pb      15.31206      0.01005     13.02055         0.675430      0.148205      0.169457
Pb       3.77577      7.65505      4.33554         0.205343     -0.220166     -0.100073
Pb       3.87875      7.77699     17.43084        -0.406270     -0.326671      0.191916
Pb      15.18185      7.47552      4.30569         0.553434      0.720196     -0.119480
Pb       0.21226      7.62659     17.42699        -0.850198      0.056416      0.258602
Pb       3.76890      7.61892      8.64050         0.417485     -0.424278      0.044075
Pb      15.29504      7.71916      8.63484         0.606754      0.152750     -0.131118
Pb       3.85209      7.81353     13.09289        -0.129867     -0.653497     -0.341827
Pb      15.28398      7.74785     12.92713         0.361209     -0.664427      0.317606
Pb       3.88401     11.40576      4.38295        -0.028593      0.579201     -0.039452
Pb       3.68897     11.46726      0.01763        -0.147886      0.243846     -0.474438
Pb      15.32119     11.38334      4.32631        -0.163899      0.054165     -0.170351
Pb       0.08891     11.38894      0.09998        -0.305960      0.596121     -0.804682
Pb       3.76741     11.47150      8.65937        -0.157490      0.268017      0.131831
Pb       0.09749     11.64858      8.61094        -0.121772     -0.973167      0.220874
Pb       3.73977     11.58581     13.01818         0.423467     -0.031115      0.190975
Pb      15.12209     11.44312     12.96025         1.383259      0.521662      0.659740
Pb       7.56905      3.95199      4.23371         0.273836      0.163621      0.381692
Pb       7.69066      3.81767     17.39872        -0.195114     -0.030725     -0.477060
Pb       7.55046     15.31691      4.24202         0.320908     -0.080931      0.636476
Pb       7.82474     15.25162      0.01957        -0.162797      0.454845     -0.349165
Pb       7.70383      3.80950      8.64736        -0.497953     -0.058540      0.716887
Pb       7.70219      0.09368      8.69429        -0.292441     -0.614159     -0.002257
Pb       7.52067      3.66471     13.01110         0.214520      0.836097     -0.082098
Pb       7.72080     15.09246     13.13753        -1.126744      0.402279     -0.219625
Pb       7.62582      7.79428      4.37843        -0.262209     -0.469505     -0.300305
Pb       7.74012      7.53137     17.36269        -0.191739      0.595557      0.630516
Pb       7.66987      7.57933      8.72584        -0.188700     -0.047897     -0.095237
Pb       7.77811      7.64203     13.09976        -0.508390     -0.048768     -0.603506
Pb       7.65334     11.49069      4.28721        -0.193478      0.242340     -0.222010
Pb       7.67858     11.44403     17.31838         0.371035     -0.010827      0.422331
Pb       7.75333     11.47024      8.79961        -0.351400      0.171709     -0.098750
Pb       7.57511     11.52808     13.06488        -0.646042     -0.180345      0.040003
Pb      11.58892      3.92484      4.35789        -0.636876     -0.293356      0.226415
Pb      11.30593      3.78449     17.35746         0.429777     -0.055384     -0.599537
Pb      11.53070      0.13265      4.33428        -0.341629     -0.497580      0.203655
Pb      11.67343      0.06177     17.35377        -0.160430     -0.233267     -0.089474
Pb      11.68864      3.68643      8.67611        -0.810531     -0.001564      0.150403
Pb      11.51964      0.01415      8.66461        -0.361383     -0.413423     -0.292706
Pb      11.41667      3.90479     12.87204         0.218065     -0.389908      1.015214
Pb      11.42899     15.30861     13.11990         0.499366      0.309502     -0.410085
Pb      11.53574      7.66097      4.40546         0.017537      0.381858      0.150414
Pb      11.42535      7.69044     17.32585         0.581229      0.217721     -0.047053
Pb      11.48863      7.59946      8.66774        -0.472879      0.778842      0.027093
Pb      11.61776      7.67233     13.03295        -0.370395      0.144130     -0.454997
Pb      11.39591     11.56442      4.35697         0.715590     -0.095284     -0.013624
Pb      11.62056     11.56504     17.40329        -0.154404     -0.385848      0.177159
Pb      11.36420     11.53009      8.74886         0.655743     -0.142549     -0.588431
Pb      11.42053     11.59350     13.06821         0.214471     -0.866752      0.016597
Ti       1.82827      1.93570      2.29765        -0.070186     -0.338318      1.283408
Ti       1.86463      2.00716     15.38841        -0.106128     -0.926687     -0.805357
Ti       1.79483     13.39978      2.42748         0.317602      0.209108     -1.386178
Ti       1.92254     13.53821     15.39733        -1.280852     -0.838279      1.556472
Ti      13.38560      1.91217      2.33560         0.232958      0.008004      0.475400
Ti      13.40164      1.96882     15.25678        -0.468789     -0.330334      2.865198
Ti      13.34384     13.46317      2.38696         0.617541     -0.442560      0.330257
Ti      13.47020     13.39443     15.37175         0.597144      0.403323      1.177975
Ti       1.87430      1.82351      6.52956         0.905878      0.518343      0.385656
Ti       1.88600     13.37115      6.49444         0.940387      0.046659      2.216069
Ti      13.46857      1.84522      6.67306        -0.217788      0.349566      0.542032
Ti      13.38790     13.41431      6.64387        -1.125625     -1.028883     -0.409940
Ti       1.91191      1.93776     11.09064        -0.516212     -1.362071      0.608006
Ti       1.85588     13.43529     11.11370         0.728110      0.701909      0.391659
Ti      13.32713      1.77355     11.08126         0.970180      0.866893     -0.408173
Ti      13.38236     13.39229     11.06004         0.948424      0.348711      1.152934
Ti       1.90223      5.69843      2.33407        -0.871802      0.800618     -0.056804
Ti       1.85842      5.79955     15.38398         0.313021     -0.100304      0.145852
Ti      13.28791      5.75224      2.16518         0.956686     -0.658145      1.816978
Ti      13.40186      5.77200     15.34894         0.075544     -0.244677      0.471328
Ti       1.80077      5.69962      6.57364         2.026362     -0.696683      0.977739
Ti      13.41309      5.70807      6.76742         0.206879     -0.209438      0.357550
Ti       1.93091      5.70475     11.01342         0.845435      0.077028     -0.549925
Ti      13.43229      5.69806     10.91341        -0.177661     -0.079438      2.935193
Ti       1.98350      9.54524      2.41523        -1.270875     -0.585635      0.596034
Ti       1.91798      9.60965     15.31138        -0.246811     -0.071628      2.055068
Ti      13.45716      9.58352      2.33400        -0.349599      0.268804      0.274083
Ti      13.46433      9.52277     15.39435         0.104950      0.637823      1.571222
Ti       1.98512      9.45204      6.66130        -1.044425      0.852919      0.124456
Ti      13.43196      9.57465      6.73682        -0.467884      0.165180     -0.589561
Ti       1.94956      9.56059     11.02957         0.416269      0.893741     -1.709230
Ti      13.44926      9.58923     10.94303        -1.694539     -0.042669     -0.216294
Ti       5.76807      1.92210      2.26075        -1.458296     -0.078233      0.067825
Ti       5.69009      1.91945     15.47573         0.811806     -0.430588      0.718302
Ti       5.65823     13.38070      2.28662        -0.247878      0.374266      1.109334
Ti       5.70170     13.37498     15.54677         0.309629      0.048124     -2.292308
Ti       5.64773      1.84267      6.64119        -0.483887      0.117563      1.361581
Ti       5.71591     13.40725      6.72193        -0.452104      0.105729     -0.871576
Ti       5.66676      1.83373     11.10023        -0.834629      0.001034     -0.659960
Ti       5.66459     13.35141     11.02185         0.534981      0.308016      1.474797
Ti       5.66826      5.74904      2.18162         0.640540      0.590516      1.105487
Ti       5.73231      5.80479     15.44619        -0.343217     -1.025645     -0.879279
Ti       5.72266      5.71750      6.61248        -0.472028      0.372965      0.340623
Ti       5.69961      5.76232     11.07827         0.508658     -0.822759     -0.806438
Ti       5.78310      9.58207      2.29882        -0.122972     -0.680382     -0.035338
Ti       5.79876      9.51774     15.39071        -0.574808      1.187452      0.159141
Ti       5.80428      9.60727      6.74642        -0.734631     -0.474497     -1.140869
Ti       5.74965      9.52217     10.96917        -0.037540      0.633208      1.304198
Ti       9.50250      2.00381      2.41199         0.500950     -0.291189     -0.066919
Ti       9.51788      1.91157     15.24346         0.158091      0.487726      1.847857
Ti       9.52576     13.49526      2.35205         0.456176     -0.311644     -0.683255
Ti       9.62182     13.44406     15.40256         0.014443     -0.735728      1.327034
Ti       9.51471      1.90922      6.68090         0.439745     -0.617490      0.503819
Ti       9.44840     13.38188      6.66523         1.048249      1.061351      1.759129
Ti       9.46442      1.80098     11.09641         0.613935      0.601319      0.359170
Ti       9.59050     13.32394     11.08100        -1.402396      1.074175     -1.199963
Ti       9.56403      5.85193      2.35878        -0.701596     -1.039194     -0.019238
Ti       9.57992      5.86315     15.26664        -0.163271     -0.917705     -0.405612
Ti       9.57073      5.69772      6.77037        -0.342858     -0.320163     -1.027249
Ti       9.57875      5.74965     11.00919        -0.999266     -0.470740      1.592439
Ti       9.67230      9.59961      2.33543        -0.690159      0.379563     -0.426004
Ti       9.58321      9.64349     15.38310         0.717934     -0.197603      0.615158
Ti       9.49338      9.59501      6.60697         1.882754     -0.770417      1.178287
Ti       9.51755      9.55129     11.09867         0.963176     -0.713090     -0.551313
O       1.89101      1.87446      0.54070        -0.188592      0.321088     -0.172588
O       1.64384      1.86872     13.65078         0.937939      0.342401      0.332799
O       1.93035     13.40178      0.58061        -0.307884      0.023532      1.030613
O       1.91831     13.47614     13.70485        -0.215545     -0.034905     -1.596342
O      13.38250      1.89480      0.61152        -0.178513      0.024647     -1.208043
O      13.29829      1.93758     13.58665        -0.096326     -0.387795     -2.380652
O      13.33679     13.38622      0.62773         0.070503      0.198685      0.328945
O      13.41517     13.45533     13.61204        -0.238959     -0.640514     -0.191599
O       1.79776      1.81683      4.79322         0.164384      0.225345     -0.334687
O       1.86892     13.34293      4.80290         0.092869     -0.113735     -1.680425
O      13.43918      1.85169      4.94022        -0.000606     -0.108610     -0.441489
O      13.26210     13.48771      4.87449         0.448704     -0.111143      0.951104
O       1.88350      1.79208      9.33787        -0.117133      0.445610     -0.326102
O       2.04654     13.44647      9.36551        -0.721611     -0.134748     -0.494101
O      13.36409      1.83639      9.30445        -0.021628      0.070307     -0.342489
O      13.36546     13.23440      9.36288        -0.078062      0.265447     -1.179917
O       1.80480      5.74800      0.59825         0.406166     -0.177360     -1.230577
O       1.99213      5.86592     13.64505        -0.384261     -0.139323      0.393521
O      13.22908      5.77514      0.46406        -0.016687     -0.227888     -0.824836
O      13.41751      5.74524     13.59269         0.015500      0.645217     -0.238803
O       1.87576      5.75792      4.83298        -0.056421     -0.101127     -0.494103
O      13.39056      5.72247      5.02280        -0.168680      0.158588     -0.770128
O       1.97061      5.57740      9.20289        -0.391346      0.310233      1.004901
O      13.50733      5.59357      9.22446         0.160495      0.149175     -1.104476
O       1.89151      9.48038      0.67297         0.208617      0.319361     -1.063151
O       1.92464      9.56016     13.60923        -0.197298     -0.217968     -1.968772
O      13.39665      9.67473      0.57254         0.150607     -0.318265      0.804619
O      13.45992      9.45440     13.64109         0.017523      0.147094     -0.754999
O       1.98335      9.38915      4.88507         0.009330      0.539656      0.527047
O      13.41699      9.36066      4.97217         0.126227      0.274595      0.090430
O       1.97419      9.66909      9.18170        -0.120696     -0.494421      1.527608
O      13.43468      9.72060      9.20295         0.148233     -0.375826     -0.153356
O       5.75690      1.83165      0.50233        -0.021126      0.259581     -0.146802
O       5.73694      1.87310     13.74587        -0.107898      0.189548     -1.555868
O       5.52358     13.47550      0.54730         0.534381     -0.267349     -0.768282
O       5.76846     13.24529     13.67547        -0.060430      0.541334      1.658461
O       5.55222      1.83183      4.93455         0.344485     -0.111480     -1.384746
O       5.58611     13.32075      4.90132         0.551961      0.281751      0.752158
O       5.58262      1.87457      9.34378         0.248273     -0.122859      0.064536
O       5.71413     13.42638      9.30774         0.010271     -0.067834     -1.080151
O       5.79344      5.72946      0.45260        -0.396974     -0.127246     -0.732460
O       5.73167      5.71073     13.63764        -0.181517      0.263232      0.788789
O       5.67758      5.81631      4.85365         0.428225     -0.235044     -0.282127
O       5.63844      5.56580      9.28978         0.160345      0.713627      0.174105
O       5.79622      9.48299      0.54240        -0.125580      0.717823      0.260253
O       5.74737      9.61118     13.63660        -0.152597     -0.384279      0.386307
O       5.74232      9.58830      4.89833         0.229717      0.026489      0.970927
O       5.81091      9.49423      9.23386         0.009200      0.344050     -0.677411
O       9.42540      2.05976      0.64180         0.328180     -0.008724      0.132341
O       9.53576      1.87302     13.52155         0.024490     -0.394460     -0.811602
O       9.48555     13.44635      0.58517         0.274548      0.072590      0.004413
O       9.51531     13.23518     13.64366         0.510173      0.773347     -0.315838
O       9.54950      1.74266      4.96843        -0.298050      0.728554     -0.607530
O       9.39632     13.37911      4.96417         0.226109     -0.043522     -1.759184
O       9.61168      1.85095      9.35907        -0.340510     -0.151499     -0.702765
O       9.45046     13.40867      9.29801         0.529173     -0.295074      0.404814
O       9.50334      5.76005      0.58851         0.555510      0.002783     -0.359998
O       9.47777      6.03052     13.50107         0.577519     -0.578839      0.591200
O       9.49423      5.51117      4.96650         0.170392      0.932920      1.321311
O       9.53658      5.76312      9.30522         0.042510     -0.130317     -1.672980
O       9.51824      9.68746      0.56755         0.330900     -0.602095      0.343118
O       9.61305      9.52386     13.65086         0.046077      0.091958     -1.180505
O       9.56246      9.58536      4.86538        -0.468687     -0.041716     -0.305588
O       9.44568      9.64778      9.34688        -0.062308     -0.235037     -0.950510
O       3.75395      1.97394      2.73763         0.348234     -0.502815     -0.435858
O       3.81271      1.94482     15.76804        -0.689324      0.231105      0.236649
O       3.72198     13.34770      2.74388         1.032526      0.172180     -0.003136
O       3.75991     13.40533     15.78649         0.981998     -0.048211      0.440253
O      15.24667      1.97579      2.67626         0.784463      0.046557      0.193451
O      15.28918      2.03706     15.75735        -0.632941     -0.901928      0.274837
O      15.26963     13.35572      2.83240        -0.046350     -0.061881     -0.082082
O      15.34572     13.40353     15.93715        -0.031321      0.146303     -0.487088
O       3.74419      1.84598      7.11406         0.239499     -0.053875     -0.436897
O       3.78885     13.41193      7.14849        -0.065301     -0.445163     -0.540129
O       0.00836      1.79095      7.09622        -0.546938      0.271196      0.095499
O       0.06234     13.42959      7.05289        -1.411390     -0.418216     -0.260920
O       3.79199      1.76601     11.59497        -0.151159      0.406253      0.068216
O       3.83193     13.41580     11.52818        -0.833399      0.166417     -0.026770
O      15.29495      1.94327     11.43094        -0.378280      0.125805      0.031173
O      15.30003     13.36493     11.51177        -0.521067     -0.122861     -0.290978
O       3.77305      5.61366      2.65675         1.107048      0.294315     -0.110239
O       3.80925      5.85823     15.80874        -0.036695     -1.002106      0.188203
O      15.34266      5.70440      2.67779        -1.902212      0.158457      0.131569
O      15.29727      5.68781     15.81809        -0.248284      0.550399     -0.260350
O       3.79110      5.81240      7.03289         0.395507     -0.625883     -0.110875
O       0.03431      5.71893      7.01759        -1.388620      0.229698      0.484414
O       3.75983      5.76446     11.56334         0.304557     -0.013405     -0.163962
O       0.10994      5.68274     11.58278        -1.813416      0.924893     -1.421469
O       3.80875      9.61294      2.82948         1.099862      0.213715     -0.467658
O       3.84167      9.49556     15.83424        -0.110809      0.447899     -0.203763
O      15.32390      9.51338      2.84085        -0.503766     -0.079175     -0.391443
O       0.02545      9.52909     15.88073        -0.259788      0.118259     -0.386844
O       3.91167      9.57310      7.10248        -0.804323      0.014020     -0.168714
O       0.05652      9.59966      7.06568        -0.613490     -0.670878      0.204203
O       3.84099      9.70612     11.45480        -0.589206     -0.832207     -0.209870
O      15.31019      9.56289     11.33991         0.466430      0.108034      0.228820
O       7.54075      1.88491      2.78182         0.951197      0.366575      0.114469
O       7.65005      1.91474     15.75650         1.324188     -0.115626      0.101595
O       7.64766     13.41258      2.68194        -0.797000      0.062589      0.188256
O       7.66658     13.48008     15.84403         0.421053     -0.372373      0.082029
O       7.57456      1.89992      7.10196         0.841358      0.096294     -0.127239
O       7.61594     13.52263      7.14191         0.025999     -0.675768     -0.103068
O       7.50313      1.87706     11.43211         1.261478      0.283505      0.200668
O       7.68920     13.38917     11.54962        -0.558190     -0.745646     -0.248323
O       7.62100      5.71820      2.52882        -0.313608      0.352623      0.928246
O       7.65301      5.74775     15.73970         0.400915      0.267137      0.175543
O       7.63094      5.63678      7.20775         0.054419      0.206985     -0.544292
O       7.60961      5.68939     11.44572        -0.221143      0.158644     -0.046221
O       7.62840      9.47728      2.78356         0.314271      0.550594     -0.159781
O       7.67997      9.52652     15.72475        -0.109016      0.373122      0.287099
O       7.66177      9.58561      7.08625         0.369956     -0.060365     -0.037419
O       7.64616      9.62346     11.50728        -0.904263     -0.265508     -0.164691
O      11.41992      1.93609      2.74540        -0.125199     -0.471381      0.080428
O      11.50154      1.91658     15.88514        -0.749471     -0.345580     -0.478728
O      11.46504     13.47046      2.81920        -0.599542      0.167695     -0.154412
O      11.53482     13.37681     15.89047        -0.524094      0.184395     -0.730311
O      11.52764      1.97295      6.99398        -0.262455     -0.845508      0.486770
O      11.43079     13.40331      7.13053         0.473186      0.110171     -0.057557
O      11.42666      1.63749     11.39756        -0.094070      0.628926      0.442269
O      11.47854     13.44811     11.53197        -0.287910      0.045280     -0.073898
O      11.44265      5.70162      2.79173         0.264253      0.131648     -0.348788
O      11.40613      5.85371     15.63721         0.624576      0.191140      0.390203
O      11.56502      5.71120      7.25910        -1.220497      0.043313     -0.546243
O      11.49224      5.76606     11.45329         0.712159      0.209917     -0.646901
O      11.51898      9.57832      2.84647        -0.023137     -0.219629     -0.417348
O      11.53911      9.53631     15.78800        -0.297515      0.239512     -0.039677
O      11.50814      9.42961      6.98307        -1.151784     -0.005802      0.544932
O      11.44394      9.51687     11.28231         0.925741      0.052791      0.746859
O       1.80252      3.84565      2.72433         0.288629     -1.146214      0.191797
O       1.70008      3.83423     15.84222         1.651033      0.871769     -0.005229
O       1.69143     15.32619      2.76734         0.686881      0.291031     -0.465649
O       1.87609      0.06706     15.85898         0.112811     -0.281272     -0.250469
O      13.30659      3.78493      2.75423         0.301719      1.338349     -0.178919
O      13.23327      3.84312     15.63762         0.457279      0.570100      0.644658
O      13.50283      0.01268      2.85473        -0.934099     -0.192913     -0.574301
O      13.36545     15.31113     15.67563         0.138705      0.584304      0.336473
O       1.84478      3.73141      6.89469        -0.093607      0.674697      0.320364
O       1.87506     15.28300      6.97334         0.198454     -0.190459      0.028694
O      13.41560      3.79770      6.99432         0.566643     -0.631361      0.547897
O      13.44034     15.22831      7.15452        -0.198350      1.128292     -0.153324
O       1.90065      3.81396     11.48036         0.361614      0.142801     -0.132017
O       1.76403     15.33843     11.50632         0.255903     -0.094422     -0.068221
O      13.30405      3.79112     11.49443         0.275107      0.512589     -0.864833
O      13.47110     15.31719     11.47644        -0.457323     -0.789869     -0.079840
O       1.89425      7.61847      2.73487         0.312294      0.149871      0.162244
O       1.89621      7.67274     15.89425        -0.015232     -0.150304     -0.489343
O      13.28073      7.55754      2.81760         0.509353      0.700899     -0.758618
O      13.41740      7.68384     15.87269        -0.041620     -0.519284     -0.340522
O       1.94031      7.58955      7.10379        -0.353932      0.718588      0.004315
O      13.39665      7.59942      7.22029         0.691254      0.278029      0.137348
O       1.98609      7.69561     11.36143        -0.501524      0.042288     -0.028148
O      13.42911      7.63930     11.29744         0.310076     -0.364746     -0.039483
O       1.82834     11.44258      2.64150        -0.140357      0.174133      0.613492
O       1.86428     11.43207     15.79935         0.456141      0.575076      0.302073
O      13.39084     11.50683      2.85828        -0.126745     -0.623368     -0.264611
O      13.42782     11.48700     15.88460         0.192268     -0.215260     -0.650623
O       1.82931     11.44513      7.05583         1.042826      0.409187     -0.508460
O      13.27848     11.45493      6.96829         0.756019      0.693019      0.178354
O       1.84430     11.54419     11.39052         0.028053     -1.058742      0.481753
O      13.34123     11.45755     11.58509        -0.348398      0.014425     -0.647985
O       5.74360      3.82217      2.61465        -0.247001      0.044294      0.067058
O       5.79190      3.79514     15.82904        -0.510413      1.175871      0.188423
O       5.69290     15.33793      2.73825        -0.195194     -0.226089     -0.431741
O       5.75567     15.32182     15.79239        -0.503113     -0.258696      0.375220
O       5.67684      3.79475      6.88614        -0.025545      0.150213      0.487589
O       5.66962     15.31350      7.12111         0.227754      0.065316     -0.176559
O       5.57170      3.85951     11.40571         0.289039     -1.229604      0.832772
O       5.71287     15.22763     11.59569         0.384825      0.841079     -0.181311
O       5.58562      7.67864      2.59263         0.316660     -0.551031      0.335604
O       5.73322      7.67177     15.94959         0.412761     -0.369796     -0.857192
O       5.76503      7.61869      7.09053         0.326805      0.466153     -0.020969
O       5.63207      7.63229     11.39680         0.256886      0.970032      0.046542
O       5.83734     11.55600      2.68622        -0.634415     -1.129299     -0.055981
O       5.79223     11.48862     15.82818        -0.317798     -0.420470      0.375416
O       5.81736     11.53007      7.09961        -0.195779     -0.695346      0.132700
O       5.61794     11.46801     11.46522         1.049982     -0.083317     -0.371233
O       9.53951      3.88750      2.89214        -0.252681     -0.733517     -0.625174
O       9.66645      3.84681     15.52824        -0.535924     -0.017228      0.559224
O       9.39671      0.02617      2.72746         0.615292      0.051317     -0.040878
O       9.65817     15.30749     15.86220        -0.307839      0.641654     -0.678054
O       9.60071      3.83593      7.28683         0.025844     -0.864783     -0.612738
O       9.55306     15.29921      7.11344         0.163874      1.183350      0.131974
O       9.56853      3.81512     11.46277        -0.235714     -0.663334     -0.148413
O       9.36182     15.29510     11.47177         0.850675     -0.245901      0.213657
O       9.57622      7.69590      2.81627         0.022352     -0.377377     -0.171272
O       9.56035      7.74528     15.82463        -0.160191     -0.921266     -0.035349
O       9.45068      7.58226      7.10492         0.474163      0.692764     -0.146482
O       9.50053      7.60845     11.31952        -0.145060      0.857633      0.554842
O       9.59227     11.48590      2.67958        -0.289896      0.292343      0.573543
O       9.62383     11.49570     15.78232        -0.383024      0.555744      0.147430
O       9.65144     11.44813      7.08675        -0.867649      0.042616     -0.117582
O       9.55881     11.46175     11.30236         0.404176      0.713529      0.907811
