  # total energy = -7880.88953259 
CRSYTAL
PRIMVEC
    15.3600000000000000    0.0000000000000000    0.0000000000000000
     0.0000000000000000   15.3600000000000000    0.0000000000000000
     0.0000000000000000    0.0000000000000000    17.440000000000000
PRESSURE
-0.861068 -0.811095 -5.47581 0.136866 0.335705 -0.063465
PRIMCOORD
320 1
Pb       3.80526      3.77619      4.41828         0.152299      0.180778     -0.588415
Pb       3.87150      3.72953     17.39611        -0.108984      0.248096      0.133052
Pb       3.76326     15.29666      4.41602         0.408983     -0.150078     -0.558927
Pb       3.75639     15.31994     17.35368         0.417405      0.282882      0.053880
Pb       0.05831      3.75404      4.39342        -0.353435      0.283691     -0.330767
Pb       0.15098      3.85977      0.06512        -0.168165     -0.105145     -0.440376
Pb       0.07168     15.28092      4.31475        -0.065151      0.440815     -0.299789
Pb      15.14602     15.25532      0.01542         0.819342      0.122091     -0.650338
Pb       3.72081      3.88397      8.72237        -0.066172      0.129454     -0.633269
Pb       3.84289      0.01579      8.77441         0.057730     -0.120804     -0.806057
Pb      15.12673      3.98462      8.69058         1.041227      0.027705     -0.322673
Pb      15.19984      0.12536      8.78103         0.474067     -0.703872     -0.541876
Pb       3.81406      3.74671     12.92936         0.040278      0.166269      0.621973
Pb       3.70186     15.29745     12.89774         0.066417      0.364094      0.258091
Pb       0.03363      3.67887     13.13626         0.295735      0.729907     -0.083367
Pb       0.00962     15.31629     13.00363         0.274835     -0.092655     -0.209713
Pb       3.85825      7.64191      4.31436         0.269642      0.418868     -0.171460
Pb       3.68543      7.55294     17.40470         0.862544      0.115752     -0.084879
Pb       0.16242      7.77362      4.32617        -0.235867     -0.043925     -0.109099
Pb      15.20617      7.67516     17.38735         0.293002      0.085490     -0.471703
Pb       3.90288      7.69949      8.73713        -0.681484     -0.161534      0.332177
Pb      15.34095      7.65417      8.72492         0.239575      0.055886     -0.534344
Pb       3.78423      7.56316     13.01030         0.483086      0.362919      0.072615
Pb       0.03447      7.61297     13.16529        -0.087526      0.005953     -0.436574
Pb       3.70131     11.52938      4.32186         0.321101     -0.233646     -0.143466
Pb       3.92349     11.42223     17.34123        -0.327984      0.423508      0.207289
Pb       0.01473     11.63274      4.26286         0.109030     -0.800189      0.153930
Pb      15.20847     11.51296     17.31380         0.765908      0.117265     -0.315282
Pb       3.80234     11.55781      8.73720         0.170486     -0.240370     -0.562573
Pb      15.27385     11.38835      8.75937         0.433126      0.243132     -0.545490
Pb       3.87797     11.44364     12.97627         0.411501      0.003589     -0.057979
Pb       0.15687     11.50700     13.13191        -0.246674      0.139357     -0.659351
Pb       7.73123      3.66861      4.40625        -0.263172      0.328520     -0.872423
Pb       7.58720      3.83803     17.42651         0.098621      0.195534     -0.222730
Pb       7.75116     15.31977      4.41714        -0.554055      0.093430     -0.808019
Pb       7.49718     15.31915     17.39556        -0.057601      0.385085     -0.187244
Pb       7.65558      3.85150      8.69182        -0.163503      0.086603     -0.535145
Pb       7.66058     15.29286      8.63655        -0.240396      0.282488     -0.029506
Pb       7.82775      3.99095     13.19218        -0.275347     -0.294197     -0.755214
Pb       7.57692      0.19055     13.00609         0.711914     -0.225097     -0.059743
Pb       7.66816      7.51383      4.29580        -0.319154     -0.031563     -0.206766
Pb       7.54521      7.69832      0.00021         0.206574      0.041325     -0.395209
Pb       7.63238      7.78670      8.68830         0.245111     -0.278033     -0.173068
Pb       7.59193      7.64731     12.96331         0.037549      0.126950      0.405111
Pb       7.71753     11.40296      4.40283        -0.059267      0.614308     -0.330550
Pb       7.56130     11.58101     17.39402        -0.075991     -0.404625     -0.135488
Pb       7.65228     11.53259      8.69042        -0.078754      0.004725     -0.210600
Pb       7.77530     11.55263     13.00939        -0.117360     -0.152278     -0.297145
Pb      11.47978      3.73218      4.32225        -0.009456      0.662352     -0.350188
Pb      11.62875      3.80533      0.09347        -0.286936      0.077721     -0.489373
Pb      11.54803     15.25219      4.33382        -0.237600     -0.170098     -0.370902
Pb      11.35171     15.24201      0.00259         0.097819      0.491829     -0.698279
Pb      11.44154      4.02610      8.71606         0.095110     -0.294130     -0.797300
Pb      11.45045     15.32506      8.67385         0.156667     -0.031521     -0.283323
Pb      11.59223      3.69985     13.28516        -0.503182      0.105097     -1.139901
Pb      11.50663     15.33248     13.04399        -0.156699      0.150634     -0.836620
Pb      11.49602      7.68902      4.21702         0.303852     -0.630415      0.256704
Pb      11.47220      7.60673      0.07375        -0.352299      0.278213     -0.795639
Pb      11.53240      7.69397      8.70419         0.183815      0.146317     -0.839012
Pb      11.40969      7.64338     13.11315         0.253493      0.143992     -0.700393
Pb      11.56878     11.39972      4.33176        -0.240046      0.653708     -0.094221
Pb      11.32673     11.46230     17.39596         0.368017      0.165503     -0.145281
Pb      11.55774     11.52724      8.76516         0.081063     -0.203610     -0.531506
Pb      11.50745     11.45081     13.02788        -0.014079     -0.070458     -0.650526
Ti       1.84464      1.93224      2.24702         0.820202     -0.625763      0.227567
Ti       1.87452      1.88921     15.42244         0.285160     -0.189182     -1.407274
Ti       1.89821     13.48170      2.17544         1.384924     -0.410794     -0.086897
Ti       1.98166     13.47561     15.31203        -0.687225     -0.935911      1.420310
Ti      13.35789      1.86862      2.25001         0.546587      0.461810     -0.735727
Ti      13.37616      1.90893     15.42082         0.399668     -0.555500      1.687797
Ti      13.42561     13.33448      2.24506        -0.752802     -0.073919     -0.039911
Ti      13.38963     13.48657     15.24160         0.820951     -0.687855      0.555492
Ti       1.85088      1.85962      6.64088         0.291750      0.769076     -0.277240
Ti       1.92162     13.44680      6.74443         0.062300     -0.806390      0.128223
Ti      13.40686      1.91904      6.64211        -0.105979      0.272596     -0.045015
Ti      13.47143     13.40579      6.62565         0.487474     -0.382969     -0.106270
Ti       1.82599      1.93564     10.93087         0.876725     -0.354381      0.628810
Ti       1.93351     13.40512     10.90701        -0.277147      0.202117     -0.685986
Ti      13.46317      2.00459     10.98168        -1.020411     -0.670989      0.163131
Ti      13.45952     13.40974     10.95615         0.308476     -0.516631     -0.768293
Ti       1.93508      5.75827      2.30900         0.371709     -0.106378     -0.706362
Ti       1.93246      5.73345     15.37046         0.406289     -0.725734     -0.764106
Ti      13.50991      5.78330      2.26072        -0.432824     -0.609306      0.600221
Ti      13.44197      5.71515     15.34601         0.142158      0.434175     -0.440734
Ti       1.96903      5.77070      6.55872        -1.113769     -0.092003      0.474800
Ti      13.43717      5.79545      6.55669         0.456023      0.351044     -0.821526
Ti       1.88002      5.71676     11.06602         0.044537      0.100887     -2.044524
Ti      13.45938      5.77999     11.02798        -0.211654      0.326975      1.218241
Ti       1.96547      9.65325      2.18795         0.306898     -0.539129      0.215392
Ti       2.05012      9.57552     15.39658        -0.527103      0.538315     -0.154835
Ti      13.41921      9.55136      2.24734         0.705536     -0.114367      0.125579
Ti      13.45772      9.65550     15.36253        -0.142463     -0.461640     -1.440602
Ti       1.98422      9.51837      6.78107        -0.596420      0.730904     -0.559606
Ti      13.42083      9.59809      6.58177         0.831769     -0.754922      0.006337
Ti       1.94634      9.58150     11.00389         0.215371     -0.569610     -1.721572
Ti      13.52371      9.52653     11.04700        -0.551169      0.931603     -0.347681
Ti       5.59516      1.88405      2.34319         1.081889     -0.435694     -0.577409
Ti       5.71914      1.97634     15.21998        -0.425983      0.204549      0.185161
Ti       5.71045     13.43723      2.29217        -0.054061      0.613999     -0.034764
Ti       5.75854     13.53671     15.19656        -0.451699     -0.385655     -0.328420
Ti       5.67984      1.88289      6.63445         0.438465      0.261590     -0.337690
Ti       5.75791     13.41290      6.60070        -0.177408      0.000384     -0.003893
Ti       5.68948      1.91309     11.00779         0.476840      0.497009     -0.538376
Ti       5.79615     13.47469     10.99849         0.344505     -0.690664     -0.403430
Ti       5.78315      5.70645      2.29068         0.053856      0.256327     -0.196246
Ti       5.77446      5.72942     15.37973         0.111851      0.557711     -1.330340
Ti       5.73053      5.82125      6.72157         0.274707     -1.192599     -0.809128
Ti       5.73272      5.67646     11.00947         0.683282      0.817013     -0.788491
Ti       5.79877      9.65275      2.34467        -1.120164     -0.762232     -1.501701
Ti       5.84209      9.64331     15.33262        -0.190000     -0.960482     -0.802057
Ti       5.77834      9.59410      6.63945        -0.751386      0.624382     -0.163870
Ti       5.79871      9.58433     11.03335         0.444678     -0.079856     -0.078769
Ti       9.51231      1.87903      2.23465        -0.440341      0.482796      0.412027
Ti       9.53827      1.95737     15.38667        -0.238116     -0.083408     -0.578566
Ti       9.57104     13.43758      2.20385        -0.328884     -0.392764      1.170674
Ti       9.51977     13.43257     15.34273        -0.181330      0.592701     -1.422171
Ti       9.57279      1.95810      6.71342        -0.126076     -0.532171     -0.641089
Ti       9.62854     13.39510      6.65916         0.664361     -0.367578     -0.799561
Ti       9.63534      1.96872     10.92207        -0.362477      0.297038      0.793912
Ti       9.64603     13.46942     11.00779        -0.078905     -0.329703     -0.230726
Ti       9.64715      5.77321      2.22862        -0.895675     -0.924895      0.112494
Ti       9.60338      5.76461     15.40630        -0.709534      0.622096      0.881604
Ti       9.55214      5.78381      6.55897         0.901371      0.540400     -0.286271
Ti       9.57572      5.80486     10.93788        -0.322979     -0.765102     -0.503535
Ti       9.56635      9.65755      2.33385        -0.341585     -0.378634     -1.253177
Ti       9.62024      9.60553     15.34825        -1.411469     -0.548806      0.365581
Ti       9.64039      9.57969      6.53425         0.323241     -0.022718      0.838694
Ti       9.65009      9.57807     10.91328        -0.480756      0.569901      0.321624
O       2.04202      1.90396      0.45771        -0.811101      0.054712      0.571006
O       1.83055      1.87603     13.47367         0.238494      0.059247      2.798567
O       1.95053     13.46849      0.40887        -0.344625     -0.041278      0.742375
O       1.97810     13.54031     13.56412        -0.194164     -0.268927     -0.509290
O      13.34626      1.96941      0.39652        -0.057971     -0.368733      1.910326
O      13.27341      1.87692     13.66796         0.458407     -0.016656     -0.432472
O      13.46448     13.16814      0.42262        -0.180455      0.921478      1.581943
O      13.56539     13.61156     13.46083        -0.610021     -0.513509      0.701706
O       1.81299      1.85232      4.79311         0.010049     -0.086080      1.245123
O       2.13674     13.37585      4.91002        -0.992786      0.306075      1.078526
O      13.41584      1.85325      4.82798         0.079180      0.054109      0.852253
O      13.46468     13.35410      4.72597         0.006932      0.318510      1.926494
O       1.80447      1.93496      9.16987         0.268293      0.163649      0.252250
O       1.81816     13.44696      9.11333         0.605183     -0.043728      0.755405
O      13.48144      2.01617      9.19869        -0.174200     -0.103742      0.893340
O      13.52120     13.39729      9.09803        -0.378187      0.305667      1.612952
O       1.91935      5.56598      0.44860        -0.049961      0.793733      1.421529
O       1.90903      5.77574     13.52322        -0.100360     -0.303393      1.104862
O      13.34466      5.77874      0.42518         0.417141      0.157628      0.723708
O      13.55945      5.73060     13.50774        -0.492719      0.275754      1.789064
O       1.83616      5.86886      4.74509         0.318718     -0.381548      0.712143
O      13.54711      5.81371      4.75563        -0.242934     -0.216831      1.063047
O       1.88612      5.68801      9.18077         0.350264     -0.335778      1.978255
O      13.47921      5.84338      9.24761        -0.321492     -0.442508      0.669672
O       1.99091      9.70244      0.40812        -0.137512     -0.653957      0.310417
O       2.15457      9.48509     13.58526        -0.724031      0.415118      0.598838
O      13.39277      9.55361      0.42946         0.110595      0.065300      0.738670
O      13.44633      9.57785     13.51582         0.034117      0.289572      1.402028
O       2.09009      9.43544      4.93383        -0.524428      0.518263      1.241346
O      13.47694      9.62087      4.75897        -0.020643     -0.110569      1.186374
O       1.86882      9.51854      9.10511         0.349710      0.241091      2.962900
O      13.44562      9.37396      9.23598         0.005543      0.653934      1.245831
O       5.60561      1.81103      0.51679         0.330548      0.183169      1.341076
O       5.70407      2.05081     13.41927         0.095066     -0.545157      0.586715
O       5.71903     13.46373      0.47710         0.248765      0.240368      0.810205
O       5.80840     13.40891     13.36343        -0.049544      0.457631      1.932033
O       5.69938      1.79932      4.81202        -0.007371      0.554140      1.185606
O       5.69395     13.44472      4.79831         0.161707     -0.177109      1.140626
O       5.62648      1.89435      9.21107         0.443648      0.051459      0.707089
O       5.87690     13.47958      9.16748        -0.178300      0.035397      1.363278
O       5.79074      5.79033      0.47370        -0.024684     -0.154235      0.996315
O       5.89956      5.68335     13.49842        -0.429326      0.049771      1.855860
O       5.77556      5.90270      4.93229         0.007682     -0.366453      0.637722
O       5.71815      5.76448      9.14847         0.232627     -0.331180      1.174290
O       5.78350      9.56952      0.43831         0.065199      0.224505      2.029828
O       5.79332      9.66677     13.48586        -0.024079     -0.031304      1.551283
O       5.63558      9.60242      4.84928         0.665470      0.123654      1.117176
O       5.86477      9.56968      9.22481        -0.064968      0.048306      0.653368
O       9.46990      1.86674      0.47004         0.149580      0.163549     -0.075125
O       9.60083      2.02711     13.55047         0.285165     -0.450246      1.405038
O       9.53811     13.27995      0.42145         0.158404      0.562487      0.222620
O       9.43187     13.40271     13.49570         0.602468      0.378898      1.554746
O       9.56131      1.77529      4.86371         0.193261      0.415626      1.097727
O       9.79642     13.36525      4.86234        -0.470600      0.905812      0.808906
O       9.58275      2.10107      9.12707         0.303784     -0.086965      0.761940
O       9.74801     13.30915      9.19979        -0.168501      0.189242      0.246745
O       9.42836      5.70169      0.42274         1.037771      0.053999      1.336141
O       9.49856      5.74633     13.62201         0.387181      0.464974      0.196527
O       9.71551      5.75756      4.73776        -0.471393      0.126308      1.199098
O       9.56905      5.71578      9.07154         0.116649      0.059984      1.653158
O       9.51986      9.67942      0.49681         0.326121      0.369752      1.707255
O       9.57749      9.61105     13.57322         0.471213     -0.197769      0.195443
O       9.59208      9.57883      4.74455         0.240969     -0.065234      0.171428
O       9.68519      9.68955      9.10164        -0.129144     -0.251826      1.296461
O       3.74842      2.02432      2.72358         0.320186      0.122756      0.161485
O       3.80228      1.95257     15.79995        -0.343664     -0.727628     -0.723989
O       3.82284     13.39284      2.66569        -0.143394     -0.131245     -0.186902
O       3.86553     13.48965     15.73176         0.515369      0.170228     -0.564426
O      15.35059      1.76139      2.63468        -0.770995     -0.188456     -0.111249
O      15.31061      1.89066     15.88245         0.365430      0.242863     -0.555461
O       0.03426     13.52252      2.69995        -0.367942     -0.313764     -0.370199
O      15.33282     13.35195     15.72170        -0.105280      0.086357     -0.159792
O       3.79951      1.81863      7.07856        -0.089026      0.356739     -0.238139
O       3.90814     13.44935      7.15201        -0.865123      0.014339     -0.142615
O       0.02790      2.00657      7.16501        -0.810994     -0.176112     -0.790604
O       0.03104     13.43016      7.04999        -0.528545     -0.237909     -0.780865
O       3.73193      1.89851     11.28988         0.966350     -0.266792      0.086021
O       3.84766     13.52197     11.32564         0.432025      0.034453     -0.294949
O       0.03469      2.03642     11.54393        -1.770338     -0.625611     -0.934216
O       0.12213     13.28838     11.39482        -1.536927      0.331091      0.235632
O       3.88695      5.66296      2.71057        -0.171452     -0.378457     -0.090271
O       3.81904      5.71764     15.79793         0.213220      0.182525     -0.351414
O       0.01975      5.89632      2.62256         0.406528      0.104327     -0.401530
O      15.33677      5.71626     15.83451        -0.176886     -0.103362     -0.258579
O       3.82841      5.75939      7.10679        -0.122475      0.072498     -0.364428
O      15.35992      5.77180      7.11444         0.040977     -0.323559     -0.606368
O       3.88854      5.77046     11.37905        -0.610137     -0.246497      0.042100
O       0.04574      5.70034     11.41131        -0.938848     -0.140786      0.035967
O       3.86794      9.61770      2.73602         0.371146      0.278170     -0.533648
O       3.84695      9.52220     15.87027         0.689001     -0.146210     -0.455608
O       0.13046      9.52416      2.62405        -0.895996     -0.379680     -0.162575
O      15.35086      9.65048     15.76323         0.222248     -0.316673     -0.281907
O       3.87813      9.62926      7.25087         0.213797     -0.289539     -0.600321
O      15.33504      9.59013      7.19852        -0.078556     -0.237792     -0.960723
O       3.88813      9.44946     11.42879        -0.627935      0.684127     -0.465615
O       0.09078      9.76842     11.45379         0.116064     -0.369279     -0.046803
O       7.61909      1.83588      2.77534         0.758885      0.013299     -0.224000
O       7.55640      2.01578     15.60923         0.979056      0.115682      0.268417
O       7.73737     13.56190      2.69711        -0.343516     -0.260716     -0.236211
O       7.56807     13.46777     15.79983        -0.299256     -0.247161     -0.411940
O       7.67476      1.91382      7.07693        -0.394020     -0.067524     -0.107938
O       7.74039     13.45435      6.97047        -0.525367     -0.297656      0.040059
O       7.79327      1.88814     11.35539        -0.761005      0.137765     -0.322922
O       7.78877     13.40813     11.29706        -1.230044      0.303908     -0.034908
O       7.71389      5.75840      2.77560         0.176171      0.043178     -0.361524
O       7.67279      5.67160     15.86340        -0.682160     -0.022548     -0.540531
O       7.70465      5.87319      6.99153        -0.383565     -0.088203     -0.025503
O       7.64297      5.76422     11.36944         0.435830     -0.282844     -0.256231
O       7.68937      9.66004      2.76946         0.033572     -0.505707     -0.133334
O       7.69310      9.55543     15.79757        -0.942307      0.758815     -0.362915
O       7.72683      9.71905      6.98471        -0.432426     -0.719573     -0.137743
O       7.73751      9.62191     11.28371        -0.200331      0.256164      0.026284
O      11.50025      2.03963      2.64368         0.425388     -0.470823     -0.208854
O      11.41983      1.81213     15.85576         0.311286      0.039387     -0.286584
O      11.54595     13.24148      2.65523        -0.005244      0.294169     -0.489636
O      11.47704     13.54443     15.69563        -0.360552     -0.122647     -0.277333
O      11.46036      1.98607      7.06789         0.889654     -0.450730     -0.201387
O      11.60921     13.50617      7.02913        -0.121717      0.048392      0.027515
O      11.57225      1.97223     11.54278        -0.142763     -0.045891     -0.619781
O      11.54346     13.33487     11.41557         0.315997      0.703022      0.112592
O      11.58520      5.74114      2.65934        -0.481748     -0.198432     -0.404622
O      11.51633      5.76840     15.75748         0.347992      0.262113     -0.171640
O      11.57916      5.72724      6.97093        -0.804084      0.026847      0.250907
O      11.48687      5.99657     11.33520         0.573027     -0.269085     -0.114174
O      11.52965      9.54812      2.65647        -0.247880      0.910705     -0.305841
O      11.40427      9.74051     15.84129         1.231625     -0.869997     -0.462779
O      11.57014      9.59398      7.08899        -0.378025     -0.031416     -0.559081
O      11.58893      9.58109     11.43912        -0.811106     -0.558179     -0.148299
O       1.76422      3.79984      2.71675         0.146285      0.363594     -0.030818
O       2.02120      3.78100     15.81457        -1.250003      0.034616     -0.458287
O       2.07990     15.34195      2.72832        -0.843998     -0.099012     -0.464672
O       1.81623     15.29767     15.79398         0.280203      1.045987     -0.167655
O      13.58784      3.86126      2.63451        -0.280233     -0.617594     -0.187242
O      13.37358      3.78652     15.74802        -0.232948      0.605012     -0.276558
O      13.26687     15.27316      2.58721         0.426514      0.455644     -0.377965
O      13.48766     15.30916     15.88918        -0.629218      0.117652     -0.561482
O       1.99539      3.87252      6.73065         0.023440     -0.407474      0.458797
O       1.83158     15.35921      7.08516         0.326671     -0.217375     -0.345906
O      13.41974      3.83375      7.08891         0.042288     -0.044827     -0.487503
O      13.50684      0.02392      7.12496        -0.278657      0.143868     -0.651705
O       1.97393      3.80238     11.45866        -0.277583      0.231518     -0.422614
O       1.84873     15.30426     11.40179        -0.092053      0.768704     -0.493399
O      13.36692      3.87648     11.50011         0.286101      0.058950     -0.532555
O      13.44374     15.35383     11.30172         0.380135      0.597447      0.004435
O       2.20039      7.61523      2.68094        -1.240944      0.455040     -0.946602
O       1.95739      7.56035     15.70446        -0.540620      1.299841      0.438462
O      13.38474      7.70072      2.70484         0.363348     -0.009785     -0.651465
O      13.45033      7.74481     15.71028        -0.224492     -1.051785      0.152918
O       1.87451      7.64887      7.11642         0.497696     -0.189233     -0.333586
O      13.42743      7.66645      7.05663        -0.003227      0.011478     -0.378300
O       1.91117      7.60475     11.39634        -0.154546      1.130147      0.088013
O      13.64434      7.73588     11.48247        -0.204061     -1.359706     -0.012620
O       1.91078     11.49490      2.67213        -0.105324      0.837904     -0.096441
O       2.05160     11.49541     15.69699        -0.333990      0.009866     -0.470486
O      13.57708     11.41685      2.72912        -0.112478      0.637416     -0.549395
O      13.38121     11.52778     15.62472        -0.074395      0.519463      0.012015
O       1.95132     11.43757      7.19769        -0.017228      1.124095     -0.559495
O      13.44785     11.45513      7.06810        -0.009485      1.140671     -0.374753
O       2.05733     11.53296     11.39318         0.224759     -1.019549     -0.018206
O      13.36893     11.55066     11.20503         0.480750     -0.610560      0.536722
O       5.85513      3.83800      2.69565        -0.200420     -0.389717      0.137447
O       5.65180      3.83439     15.85531         0.433979     -0.002838     -0.481820
O       5.67976     15.35553      2.75817        -0.158397     -0.055041     -0.293151
O       5.73570      0.12849     15.64959         0.081556     -1.757544     -0.302611
O       5.78869      3.81653      6.93802        -0.245965      0.059466      0.216674
O       5.73430     15.32646      7.04492         0.463309      0.107008      0.028594
O       5.73303      3.80164     11.42811        -0.002330     -0.044685     -0.786665
O       5.78202      0.04131     11.45501         0.022869     -0.197356     -0.417504
O       5.81144      7.68454      2.79068        -0.014514     -0.001795     -0.617910
O       5.77135      7.64201     15.66383         0.002848      0.128490      0.115205
O       5.64999      7.68957      7.18699         1.019059      0.783642     -0.631574
O       5.83921      7.67713     11.46035        -0.371805     -0.139655     -0.598426
O       5.80651     11.55394      2.58747         0.275170     -0.345218      0.300415
O       5.69219     11.52012     15.76728         0.300992      0.313651     -0.680205
O       5.73329     11.52209      7.13963         0.324248     -0.144932     -0.476821
O       5.73331     11.56251     11.39004        -0.028539     -0.238414     -0.452131
O       9.59577      3.81428      2.67854        -0.126476     -0.139882      0.011915
O       9.57092      3.88188     15.70859         0.260828     -1.042112      0.168160
O       9.68218     15.35367      2.53836         0.565160     -0.562276      0.291101
O       9.32121     15.34741     15.72932         0.941656      0.335932      0.134495
O       9.57496      3.89563      6.93241        -0.153194     -0.317593      0.104143
O       9.55699     15.34411      7.21123         0.605568      0.171274     -0.549918
O       9.59135      3.95366     11.49689         0.543589     -0.481661     -0.777568
O       9.74044      0.02695     11.26521        -0.003787      0.115659     -0.034397
O       9.69372      7.65598      2.51797        -0.326106      0.516197      0.237106
O       9.45017      7.70332     15.87725         1.160831     -0.268401     -0.568362
O       9.69073      7.71135      7.00751        -0.305346     -0.088454     -0.261179
O       9.43917      7.68006     11.39548         0.876728      0.401600     -0.325755
O       9.50791     11.56658      2.83729         0.480563     -0.710465     -0.791053
O       9.47943     11.58714     15.70253         0.162798     -0.451319      0.094957
O       9.71892     11.49897      6.84234        -0.103732      0.167578      0.532792
O       9.62940     11.47260     11.52296         0.331562     -0.214025     -0.732380
