  # total energy = -7863.32726019 
CRSYTAL
PRIMVEC
    15.010000000000000    0.0000000000000000    0.0000000000000000
     0.0000000000000000   15.010000000000000    0.0000000000000000
     0.0000000000000000    0.0000000000000000    16.400000000000000
PRESSURE
15.7575 15.7575 5.97558 -0.144382 -0.036442 0.030622
PRIMCOORD
320 1
Pb       3.75337      3.63621      4.17351        -0.052158      0.678230      0.086653
Pb       3.62301      3.74330     16.37480         0.414791     -0.121956      0.044541
Pb       3.76699     14.95606      4.16207        -0.536216      0.363706     -0.112175
Pb       3.86372     14.96937      0.08772        -0.718461     -0.255391     -0.780968
Pb      14.92943      3.83924      4.16864         0.665294     -0.930833      0.080402
Pb      14.88876      3.62211      0.10671         0.009448      0.260248     -0.642441
Pb      14.88467      0.03709      4.29557         0.500146     -0.468442     -0.488515
Pb       0.05260     14.96775      0.16250        -0.614497     -0.299173     -0.484749
Pb       3.46973      3.74682      8.27257         1.284859     -0.398334     -0.393836
Pb       3.70470      0.16432      8.22305        -0.676478     -0.447846      0.032654
Pb      14.80064      3.77473      8.32332         0.349863     -0.263314     -0.196793
Pb      14.83319     15.00339      8.20461         1.020867      0.281003     -0.015585
Pb       3.72519      3.66526     12.38626        -0.854824      0.122744      0.153360
Pb       3.62308     14.96858     12.34812         0.300731      0.032149     -0.012113
Pb      14.90345      3.79482     12.38695         0.107194      0.065786     -0.002738
Pb      14.98314     14.97624     12.32948         0.263268      0.372688     -0.069380
Pb       3.87551      7.51678      4.17797         0.097615     -0.111999      0.847221
Pb       3.77678      7.56201      0.07025        -0.019564     -0.079661     -0.395482
Pb       0.16609      7.52588      4.19523        -0.442509      0.389743     -0.243490
Pb       0.01077      7.43608      0.06280         0.011375      0.226110      0.471585
Pb       3.72208      7.53034      8.29801         0.421174      0.046173     -0.222290
Pb       0.06446      7.54912      8.35491        -0.388916      0.013113     -1.158221
Pb       3.62209      7.41225     12.32775         0.158231      0.214699     -0.425288
Pb      14.87833      7.47213     12.29633         0.773968     -0.261746     -0.024413
Pb       3.88233     11.05304      4.25902         0.063076      0.186571      0.142490
Pb       3.77071     11.18180      0.12230         0.198683      0.115113     -0.448743
Pb       0.16109     11.11398      4.16136        -0.570281      0.463796      0.123202
Pb       0.09841     11.30176      0.15845        -0.785548     -0.400173     -0.158738
Pb       3.74096     11.28407      8.26272         0.271538      0.054466     -0.605295
Pb       0.10626     11.27740      8.19681        -0.578653      0.124830     -0.402328
Pb       3.72860     11.19782     12.28149         0.176171      0.162364      0.087285
Pb       0.01609     11.27654     12.29773         0.167711     -0.627963      0.528764
Pb       7.41114      3.89032      4.02289         0.274596     -0.962392      0.849725
Pb       7.45085      3.68988      0.06219         0.239176      0.346487     -0.339327
Pb       7.52122     14.89062      4.11619         0.159906      0.234874      0.016993
Pb       7.48106     14.88429      0.04051        -0.072591     -0.244696     -0.372109
Pb       7.39124      3.75439      8.28111        -0.167832     -0.509462     -0.706970
Pb       7.41918      0.16279      8.25562         0.078909     -0.211316     -0.490204
Pb       7.29794      3.81330     12.40339         0.517096     -0.758747     -0.224187
Pb       7.42974     14.97804     12.24694        -0.066003      0.160787      0.722151
Pb       7.64310      7.45044      4.11085        -0.781954      0.001517      0.335898
Pb       7.51684      7.40976     16.33814         0.189324      0.507841     -0.136770
Pb       7.59127      7.37404      8.30908        -0.734372      0.776608     -0.343139
Pb       7.44468      7.61609     12.28019         0.139247     -0.211799      0.080918
Pb       7.64594     11.06730      4.19268        -0.455451      1.031525      0.160782
Pb       7.45944     11.26557     16.39531         0.568149     -0.286484      0.440876
Pb       7.64143     11.30324      8.17344        -0.530276     -0.184966     -0.548935
Pb       7.48469     11.36484     12.15859        -0.074312     -0.585298      0.646279
Pb      11.16165      3.82231      4.17177        -0.477584     -0.394146     -0.304795
Pb      11.25969      3.76879      0.08938         0.208565     -0.086830     -0.360629
Pb      11.26925     14.90698      4.07913        -0.308539      0.364174      0.743520
Pb      11.29937     14.97271      0.06161         0.719214     -0.335183     -0.162067
Pb      11.19794      3.69490      8.38314         0.123923      0.133229     -0.570337
Pb      11.18441      0.02719      8.25509        -0.070259      0.127444     -0.224622
Pb      11.09692      3.73926     12.32997         1.259248     -0.309338      0.710366
Pb      11.18552     14.95532     12.44837         0.201793      0.244820     -0.344618
Pb      11.41340      7.49300      4.17496        -0.163932      0.139604      0.118437
Pb      11.23527      7.41649      0.07192         0.051428      0.092524     -0.495465
Pb      11.25851      7.44826      8.29303         0.380350      0.190438     -1.038262
Pb      11.09973      7.43823     12.31787         0.246837      0.525344      0.320368
Pb      11.30680     11.10898      4.10654         0.111738      0.613518      0.875242
Pb      11.25613     11.18979      0.02856         0.284293      0.611756     -0.480932
Pb      11.33738     11.38775      8.29825         0.084676     -0.544608     -0.885749
Pb      11.14544     11.24192     12.31681         0.503248      0.053960      0.059963
Ti       1.88745      1.80506      2.02362        -0.364107     -0.109966      0.547012
Ti       1.85169      1.82317     14.40394        -0.239782     -0.426466     -0.503315
Ti       1.98746     13.06291      2.05628        -1.509048      0.999313      0.274141
Ti       1.88521     13.07361     14.31978         1.024997      0.270506      0.083032
Ti      13.14757      1.80656      2.21272        -0.211884      0.019703     -1.013411
Ti      13.11165      1.79710     14.34092         0.349150      0.710468      0.782336
Ti      13.17567     12.99420      2.23135         0.592371      0.977876     -1.212180
Ti      13.23977     13.08615     14.32044        -0.627977     -0.175771      0.472134
Ti       1.80756      1.84747      6.17648        -0.116722      0.609448     -0.409280
Ti       1.88188     13.13526      6.09431        -0.890483      0.014075      0.840757
Ti      13.01372      1.93498      6.28883         0.672553     -0.236903     -0.632869
Ti      13.07618     13.16836      6.27433         1.256090     -1.297091     -1.246637
Ti       1.72718      1.95997     10.41302        -0.003778     -0.948831     -0.657136
Ti       1.82571     13.14414     10.22190         0.091352      0.503949     -0.648587
Ti      13.03257      1.81548     10.33889         0.162843      0.957515     -0.289299
Ti      13.11510     13.15392     10.35450         0.555161     -0.342332     -0.398277
Ti       1.96420      5.58883      2.09467        -0.481037      0.125357     -0.373762
Ti       1.88318      5.61702     14.39061        -0.619908     -0.464575     -0.574618
Ti      13.17967      5.58052      2.25283         0.057124      0.211206     -1.717164
Ti      13.15645      5.65753     14.48026        -1.428649     -1.249681     -0.870461
Ti       1.89096      5.59138      6.13494        -0.311663      1.343169     -0.165743
Ti      13.15199      5.61796      6.18619         0.136045      1.335385      0.542478
Ti       1.79861      5.63545     10.16625         0.094954     -0.261140      2.097380
Ti      13.01934      5.66551     10.30762         1.248264     -2.231416      0.381686
Ti       1.97303      9.32301      2.14236        -1.418899     -0.564257     -0.183276
Ti       1.80421      9.36539     14.41868         0.819986      0.347956     -0.735038
Ti      13.08687      9.33901      1.99070         1.333960     -0.586830      0.200524
Ti      13.16066      9.36264     14.23868        -0.800628      0.436514      1.005473
Ti       1.87270      9.37140      6.28430         1.298249     -0.397695     -0.339952
Ti      13.14746      9.37992      6.25131        -0.250026      0.153789     -0.699220
Ti       1.93521      9.38856     10.31851         0.096570     -0.374024     -0.275837
Ti      13.15435      9.37270     10.28497         0.357927      1.258495     -0.849431
Ti       5.62860      1.86702      2.01122         0.088148      0.086096      0.400050
Ti       5.62952      1.82010     14.39220        -0.385097     -0.329998     -0.227396
Ti       5.62759     13.09781      2.12133         0.998930     -0.967014     -0.010896
Ti       5.57884     13.03195     14.35173         0.170314      0.785253      0.024440
Ti       5.53931      1.83989      6.04746         0.533910      1.509640     -0.003423
Ti       5.59765     13.15585      6.10252         0.164091     -1.603167      0.771136
Ti       5.48109      1.84085     10.35020        -0.067577      0.984818     -0.301131
Ti       5.57375     13.16322     10.16893        -0.217058     -0.640901      0.103022
Ti       5.59514      5.65293      2.06058         0.439916     -0.356710      0.274118
Ti       5.56840      5.65542     14.34027         0.732133     -0.343574      0.280271
Ti       5.64013      5.63792      6.27489        -0.243334     -0.685751     -1.021575
Ti       5.60625      5.54194     10.28198        -1.655187      0.986718     -0.187367
Ti       5.67106      9.33072      2.05382         0.920652      1.207322     -0.685055
Ti       5.61036      9.39618     14.29214        -0.312118     -0.457474      0.572247
Ti       5.71030      9.38679      6.36289         0.055059     -0.222431     -0.473714
Ti       5.74959      9.36702     10.26974        -1.488277     -0.201575     -1.144143
Ti       9.44379      1.76677      1.96410        -0.957623      1.473454      1.591287
Ti       9.35957      1.80263     14.38905         0.560763      1.097809     -0.557376
Ti       9.41245     13.09749      2.06327        -1.265330     -0.815792     -0.040919
Ti       9.40681     13.15946     14.29698        -0.673667     -1.447856      0.436580
Ti       9.30640      1.97298      6.11787        -0.342838     -0.107572     -1.046382
Ti       9.36156     13.19181      6.19126         0.094878     -0.414116     -0.714014
Ti       9.29186      1.92491     10.29290        -0.886037     -1.790900      0.767428
Ti       9.37168     13.14202     10.22229        -0.265932      1.133563      0.016404
Ti       9.39225      5.64271      2.05655         0.519110     -0.721572     -0.334305
Ti       9.37580      5.60557     14.22570        -0.344887      0.267364      1.392054
Ti       9.37152      5.67705      6.28652         0.325023     -0.786925     -0.870401
Ti       9.30028      5.56729     10.30604        -0.480727      0.713398     -0.660344
Ti       9.42398      9.37542      2.12977        -0.862989      0.244105     -1.121735
Ti       9.38118      9.47054     14.35727        -0.160060     -1.103033     -0.472875
Ti       9.48693      9.37172      6.13610        -0.944562      0.695974      0.285679
Ti       9.50850      9.39066     10.13473        -1.900811     -0.379079      0.211075
O       1.90195      1.83244      0.14976        -0.168447      0.178765      0.430262
O       1.81571      1.90889     12.48392        -0.070909     -0.798272      0.835928
O       1.92643     13.17359      0.17128        -0.555083     -0.713601      1.139275
O       1.98497     13.05077     12.44522         0.035673     -0.025608      0.176029
O      13.11876      1.83651      0.25173         0.094221      0.005908      0.890274
O      13.12021      1.75585     12.51038        -0.521657      0.010268     -0.286224
O      13.18177     13.06399      0.24384         0.200337      0.080822      0.207243
O      13.13717     13.15866     12.39472         0.024877      0.001004      1.323695
O       1.91913      1.92562      4.30332        -0.232277     -0.269626      0.132248
O       1.80389     13.12421      4.29164         0.483556      0.265035     -1.115883
O      12.99635      1.84414      4.33160         0.492153      0.371945      0.308166
O      13.14485     13.11783      4.27868        -0.208353     -0.059760      0.178724
O       1.93382      1.95998      8.55230        -0.558859     -0.140738     -0.679940
O       1.70385     13.07879      8.33913         0.119165      0.050874      1.471256
O      13.14584      1.92599      8.39895        -0.219895     -0.373010     -0.252017
O      13.15428     13.21879      8.42070        -0.127116      0.008060      0.063623
O       1.91998      5.60022      0.16491         0.132946     -0.070515      0.570125
O       1.73355      5.66557     12.47598         0.487619      0.358334      1.203901
O      13.00202      5.52762      0.21350         0.887641      0.466196     -0.011294
O      13.15063      5.51436     12.43895        -0.572026      0.841299      0.652093
O       1.89579      5.76861      4.25583        -0.539561     -0.600834      0.150398
O      13.24281      5.70773      4.25735        -0.124595     -0.795100      0.775308
O       1.90401      5.69766      8.39297        -0.413711     -0.492225     -0.700504
O      12.98733      5.53960      8.46585         0.534903      0.139122     -0.529045
O       1.88595      9.32932      0.28105        -0.224509      0.174709     -0.562280
O       1.88981      9.23087     12.48346         0.091427      0.460286      0.829301
O      13.13704      9.23190      0.13136        -0.322611      0.486668      0.729218
O      13.11157      9.37660     12.39040        -0.151389      0.030628      0.549101
O       1.94507      9.27717      4.30681        -0.159844      0.079532      0.256471
O      13.03717      9.40883      4.29822         0.293715     -0.257871      1.223299
O       1.78563      9.40493      8.42772         0.265638      0.049585      0.204422
O      13.16607      9.39770      8.39541        -0.303999     -0.210852      0.854158
O       5.51126      1.86722      0.09705         0.601412      0.181188      0.949764
O       5.58074      1.84333     12.49038         0.318656     -0.032776      0.843687
O       5.68074     13.02659      0.25690        -0.140739      0.351982     -0.065432
O       5.61082     13.07171     12.51102        -0.157055     -0.218896     -0.073490
O       5.49664      1.79393      4.12804         0.000779      0.151809      1.124668
O       5.52130     12.97895      4.23459         0.055306      0.934611      0.772201
O       5.35618      1.85749      8.49332         0.887904     -0.005097      0.167108
O       5.77172     13.12727      8.37755        -0.700961      0.136153      0.198275
O       5.52442      5.61400      0.19027         0.470358      0.011599      0.055493
O       5.64298      5.59336     12.48938        -0.313570      0.306961     -0.149649
O       5.78553      5.62465      4.23132        -0.488564      0.448369      1.330770
O       5.72383      5.55934      8.43936        -0.731040      0.122952     -0.719266
O       5.57787      9.32747      0.17779         0.206049      0.048276      0.848735
O       5.64018      9.33682     12.42208         0.082954      0.171808      0.160258
O       5.53467      9.36501      4.46765         0.348157      0.066116     -1.381030
O       5.64618      9.34529      8.31964         0.273516      0.266334      1.519195
O       9.48834      1.76114      0.17066        -0.639774     -0.168645     -0.812365
O       9.40074      1.81998     12.46610         0.039117     -0.216890      0.828332
O       9.38254     13.01167      0.16458         0.074230      0.596662      0.868377
O       9.35204     13.20134     12.40107         0.097177     -0.621015      0.586569
O       9.43770      1.98915      4.23393        -0.215074     -0.050052      1.172936
O       9.37499     13.16164      4.34529        -0.153592     -0.016785      0.137624
O       9.19735      1.95057      8.51048         0.211872     -0.520147     -1.254602
O       9.36953     13.14955      8.34390        -0.036413      0.328436      0.865720
O       9.48655      5.71496      0.17806        -0.834345     -0.495746      0.614013
O       9.36629      5.53929     12.36156         0.002006      0.459674      0.786946
O       9.31333      5.67031      4.30018         0.169734     -0.324560      0.265655
O       9.21307      5.60153      8.37586         0.815294     -0.041365      1.184621
O       9.54024      9.50165      0.25805        -0.530513     -0.544799     -0.302514
O       9.37544      9.38727     12.41995        -0.016627      0.182821      0.913891
O       9.53146      9.37945      4.23152        -0.726453     -0.552770      0.562144
O       9.42919      9.38822      8.31112        -0.008633     -0.164407      1.134788
O       3.65860      1.35161      2.17981         1.196364      0.820321      0.285791
O       3.76194      2.09991     14.44676        -0.087335      0.025422      0.380168
O       3.74011     13.63725      2.23339        -0.155801     -1.129195      0.011694
O       3.72374     12.75556     14.64131         0.959226     -0.198409     -0.258463
O      15.00773      2.20347      2.26598        -0.451313      0.180751      0.282779
O      15.00463      1.50720     14.61253        -0.260863      0.249654     -0.205648
O       0.01616     12.61276      2.26756        -0.134857      0.581183     -0.007778
O       0.12712     13.50954     14.34805        -2.777561     -0.275978      0.594412
O       3.69705      1.78276      6.44471        -0.554490      0.042855     -0.307566
O       3.65329     13.21290      6.49552         1.462281     -0.075521     -0.228945
O      15.00972      2.12292      6.48976        -1.092160     -0.457361     -0.520704
O      14.96770     12.97612      6.28032        -0.397019      0.361410      0.452308
O       3.60125      1.56353     10.57630         1.011253     -0.027105      0.159640
O       3.71581     13.37491     10.31431         0.116322      0.126609      0.260973
O      14.84053      2.19247     10.54447         1.871785     -0.021694     -0.306412
O      15.00043     12.76163     10.65599         0.060697      0.727936     -1.475876
O       3.79923      5.99742      2.38923        -0.310600     -0.013391     -0.601041
O       3.75799      5.23453     14.48772        -1.111614      0.317811     -0.009553
O       0.09259      5.19846      2.25185        -0.900634      0.319300     -0.111101
O      14.93405      5.86361     14.57483         1.486327      0.638642      0.110484
O       3.70780      5.75129      6.25743         1.368481      0.492589      0.495365
O       0.01985      5.54773      6.47166        -1.310063     -0.376001     -0.233137
O       3.66577      5.95444     10.36230         0.428715     -0.254558      0.446800
O      14.93802      5.19413     10.44183         0.048260      1.149938     -0.457635
O       3.81138      9.10361      2.23416        -0.534959     -0.614043      0.493669
O       3.71476      9.73653     14.67079        -0.306592     -0.662047     -0.702475
O      14.93048      9.53955      2.36528         0.626056      0.375014     -0.408007
O      14.97364      8.95652     14.60866         0.326481     -0.081857     -0.487293
O       3.76216      9.32523      6.47561        -0.904377     -0.419315      0.033395
O      15.00578      9.46437      6.40794        -0.549308      0.363907     -0.191283
O       3.83860      9.05389     10.35546        -1.372695     -0.205774      0.331323
O      14.99278      9.62631     10.54894         0.053221     -0.016625     -0.417043
O       7.46525      2.21127      2.16234        -0.155689     -0.331682     -0.248847
O       7.57146      1.40843     14.63083        -0.965046      0.842429     -0.137811
O       7.49175     12.68048      2.39287        -0.074525      1.208602     -0.460624
O       7.50704     13.38337     14.54906         0.309948     -0.309839     -0.021472
O       7.38171      1.98656      6.40815        -0.017553     -0.188387     -0.076711
O       7.48716     13.00486      6.41953        -0.579456      0.064507     -0.462186
O       7.34979      2.24874     10.44578         0.653467     -0.505755      0.141379
O       7.43959     12.83854     10.44221         1.070296      0.102871     -0.183960
O       7.52327      5.31218      2.31408         0.197320      0.356994     -1.333017
O       7.44754      5.95023     14.49271         0.579566     -0.619637      0.108189
O       7.52796      5.40679      6.44468        -1.105428      0.364463     -0.429920
O       7.41896      5.28917     10.40892         1.188455     -0.221283      0.468965
O       7.50883      9.78318      2.32047        -0.099283     -0.936323     -0.267822
O       7.42258      9.14237     14.64438         0.890622     -0.218477     -0.355013
O       7.57652      9.52751      6.28095        -0.441141      0.008667      0.397072
O       7.56078      9.57077     10.33062         0.316817      0.527107      0.516258
O      11.22183      1.42635      2.25276         0.944602     -0.039181     -0.138515
O      11.26739      2.07979     14.59962        -0.482198     -0.125970     -0.298327
O      11.18996     13.43727      2.30096         1.076672     -0.216849     -0.370054
O      11.34123     12.78540     14.43711        -0.656058     -0.009045     -0.035691
O      11.17580      1.75935      6.52031        -0.126847      0.046768      0.028923
O      11.23005     13.19392      6.41625        -0.102465      0.860336      0.180148
O      11.19711      1.53410     10.16699        -1.065888     -0.164341      1.160679
O      11.28035     13.41526     10.49682        -1.373093      0.474439     -0.463991
O      11.32931      5.83872      2.26841        -1.704539      0.295113      0.446601
O      11.18125      5.37193     14.58893         0.012055      0.127393     -0.684566
O      11.26956      5.73430      6.37754        -0.298538      0.141697      0.004631
O      11.17824      5.88728     10.32273        -0.630229     -0.289165      0.684816
O      11.22159      9.03966      2.39237         0.883994     -0.232332     -0.757582
O      11.24368      9.77312     14.41933         0.450168     -0.386829      0.190830
O      11.22092      9.10468      6.42103         2.295906      0.220913      0.038322
O      11.26172      9.09422     10.39693         0.372769     -0.310618      0.359068
O       2.33044      3.74562      2.25239        -0.440121     -0.438559     -0.219236
O       1.51844      3.70068     14.53567         0.513015      0.643731      0.402658
O       1.33857     14.98379      2.19120         0.967255     -0.434646      0.491012
O       2.20117     14.92550     14.59588         0.170465      1.082122     -0.455968
O      12.70529      3.68889      2.37711         0.935099     -0.090499     -0.172449
O      13.37974      3.75168     14.54246        -0.225580     -0.672705      0.110484
O      13.51126     14.91059      2.32564        -0.607401      0.768756     -0.091006
O      12.79827     14.93582     14.61034         0.433574     -0.080816     -0.418689
O       1.97410      3.81001      6.36344         0.115050     -1.139104      0.113949
O       1.63723      0.02991      6.39215         0.282537     -0.311206      0.010228
O      12.93844      3.78093      6.44313         0.164998      0.072233     -0.284044
O      13.19407      0.05091      6.31879         0.229968     -0.314417      0.511475
O       2.08009      3.74282     10.59425         0.231180      1.190321     -0.602058
O       1.55410     14.96048     10.45004        -0.220002      0.142451      0.091338
O      12.73243      3.65828     10.46478        -0.374793      1.169625      0.203827
O      13.50641      0.03855     10.39664        -0.351852     -1.692200      0.097703
O       1.54085      7.48247      2.20539         0.284141     -0.438132      0.149360
O       2.19774      7.48376     14.62449        -0.287426     -0.206563     -0.159074
O      13.34957      7.43549      2.29211         0.234609      0.161529     -0.132765
O      12.67732      7.51826     14.42772         0.570205     -0.195982      0.063056
O       1.66038      7.53834      6.49358         0.487846     -0.577232     -0.237630
O      13.22782      7.49904      6.44768         0.060382     -0.360606     -0.007528
O       1.56008      7.53518     10.34846        -0.289197     -1.012061      0.557537
O      13.34924      7.47034     10.41082         0.053961      0.597128      0.186204
O       2.17863     11.18749      2.30143        -0.015316      0.866510      0.044838
O       1.41550     11.24765     14.57492         0.808043     -1.079057     -0.084464
O      12.69842     11.17998      2.19180         0.238617     -0.000751     -0.027642
O      13.60974     11.21100     14.56463        -0.782847      0.372890     -0.276075
O       1.90590     11.25595      6.36998         0.054737     -0.270947      0.088785
O      12.97537     11.28218      6.48905        -0.067069     -0.743388     -0.127423
O       2.23086     11.19345     10.47735        -0.635667      0.900435     -0.068421
O      12.73271     11.30097     10.43035         0.672662     -0.976842     -0.040446
O       5.28797      3.80353      2.29668         0.140397     -1.325235     -0.510797
O       5.95997      3.70757     14.55656        -0.108416     -0.224983     -0.076750
O       5.97971     15.00144      2.16577        -0.175983      0.070103      0.163146
O       5.36193     14.89825     14.60579         0.170850      0.803147     -0.176755
O       5.38324      3.70774      6.38097         0.287632      0.219536     -0.225684
O       5.46095     14.98622      6.36464         1.052068      0.148008     -0.034462
O       5.18122      3.75357     10.62189         0.548888     -0.281910     -0.772372
O       5.88257      0.01058     10.50930        -0.324256     -0.651244     -0.394602
O       6.01592      7.52996      2.20117        -0.161363     -0.570922      0.419723
O       5.25995      7.48643     14.50041        -0.026534      0.303015      0.110999
O       5.77818      7.46043      6.41620        -0.033779     -0.031861      0.081087
O       5.92863      7.44404     10.35326        -0.006779      0.446329      0.562608
O       5.24891     11.23476      2.22665        -0.091237      0.004707      0.287382
O       5.94949     11.19185     14.66598        -0.665578      0.602964     -0.861548
O       5.43526     11.26168      6.41623         0.274610      0.849691     -0.021744
O       5.26028     11.22869     10.45960         0.910876      0.138364     -0.150898
O       9.72135      3.67540      2.05527        -0.301243      0.764601      0.742717
O       9.06337      3.73462     14.48783        -0.059597     -0.291447      0.246519
O       8.99972     14.97341      2.40340         0.236917     -0.322600     -0.796711
O       9.69816     14.92585     14.53925         0.385447      0.800418      0.138847
O       9.47070      3.77623      6.52535         0.159576     -0.467572     -0.481097
O       9.09122      0.08775      6.24945         0.675418     -0.754600      0.725118
O       9.56561      3.70918     10.57668         0.392214      0.844807     -0.530665
O       8.94360     14.99612     10.48517         0.630195      0.023461     -0.821218
O       8.99969      7.49458      2.15320         0.461237      0.018759      0.239960
O       9.51391      7.53804     14.51991         0.572240     -0.228813     -0.142768
O       9.26561      7.52002      6.44204        -0.513216     -0.929894     -0.048109
O       9.09956      7.44783     10.53152         0.166529      0.461957     -0.585188
O       9.68769     11.23574      2.40152         0.024198      0.575535     -0.544611
O       9.08990     11.26935     14.55215        -0.080739      0.237356     -0.325211
O       9.62648     11.20805      6.37567        -0.665200      1.186217      0.085102
O       9.66061     11.28874     10.37163        -0.406994     -0.563230      0.097625
