  # total energy = -7882.43738744 
CRSYTAL
PRIMVEC
    15.3600000000000000    0.0000000000000000    0.0000000000000000
     0.0000000000000000   15.3600000000000000    0.0000000000000000
     0.0000000000000000    0.0000000000000000    17.440000000000000
PRESSURE
0.757245 0.775761 2.80058 0.274703 0.235455 -0.03953
PRIMCOORD
320 1
Pb       3.75612      3.86075      4.24001         0.493870     -0.200519     -0.239421
Pb       3.78248      3.86437     17.33639         0.008010      0.612744      0.080326
Pb       3.82846      0.01767      4.23662         0.037048     -0.066967     -0.527261
Pb       3.89964      0.08659      0.03641        -0.325818     -0.525304      0.000550
Pb      15.24187      3.85962      4.30244         0.403295      0.024291      0.248701
Pb      15.24667      3.81996     17.41245         0.649163      0.270844     -0.234537
Pb      15.22002     15.27609      4.29813         0.825487     -0.140111     -0.329381
Pb      15.33641     15.31502      0.03231         0.464008     -0.037239     -0.297770
Pb       3.86296      3.82677      8.67559         0.094364      0.127603     -0.307751
Pb       3.79911     15.27256      8.79011         0.193107      0.016563     -0.616535
Pb       0.09507      3.67126      8.67170        -0.360382      0.370769     -0.081705
Pb       0.10195     15.34457      8.62080        -0.363288      0.203603     -0.301358
Pb       3.73209      3.90587     13.07859         0.337540      0.250416     -0.451693
Pb       3.88652     15.26251     13.23137         0.244199     -0.201603     -0.792793
Pb      15.26042      3.83460     13.02332        -0.083094     -0.071323     -0.663063
Pb       0.00849      0.04305     13.00328         0.025814      0.245915     -0.051970
Pb       3.82267      7.63018      4.26402        -0.178859      0.121597      0.501381
Pb       3.79460      7.74683     17.43852         0.037680     -0.735023     -0.612876
Pb      15.26616      7.52583      4.34944        -0.270010      0.572747     -0.029620
Pb       0.04101      7.71986     17.37044        -0.178114     -0.443273     -0.054262
Pb       3.89450      7.54865      8.76201        -0.001890      0.191452     -0.959086
Pb       0.00845      7.63729      8.74499        -0.003165      0.543843     -0.973057
Pb       3.78430      7.77816     13.06819        -0.175939     -0.632601     -0.474146
Pb       0.04289      7.70252     12.92425        -0.318175     -0.045185      0.397572
Pb       3.77264     11.44870      4.28917         0.546629      0.528901     -0.017303
Pb       3.82812     11.41430     17.43398        -0.185008      0.810147     -0.162655
Pb      15.35056     11.48057      4.28044        -0.339575      0.350769      0.016412
Pb       0.03650     11.43023      0.01519         0.039454      0.541772     -0.241737
Pb       3.71351     11.51783      8.68739         0.231787      0.207856     -0.780111
Pb       0.03092     11.47677      8.63159         0.038571      0.027513     -0.505998
Pb       3.77041     11.55112     13.04562        -0.352675      0.511287      0.063316
Pb      15.20606     11.43365     13.12742         0.403079      0.252180     -0.643362
Pb       7.62359      3.87233      4.37909         0.235496     -0.253910     -0.372332
Pb       7.67161      3.87336     17.28364        -0.272370      0.186629      0.316209
Pb       7.63013      0.07200      4.19163         0.654457     -0.468478      0.150925
Pb       7.76503     15.32093      0.00260         0.098418     -0.108385     -0.400839
Pb       7.69414      3.67893      8.75621         0.863190      0.459737     -0.377818
Pb       7.63623     15.28239      8.64748         0.505694      0.035254     -0.206278
Pb       7.54417      3.71156     13.13504         0.421235      0.430062     -0.482230
Pb       7.64355     15.17644     13.17762        -0.528838      0.071475     -0.835575
Pb       7.57426      7.70830      4.32480         0.073953      0.024019     -0.019742
Pb       7.79614      7.55032     17.40227        -0.428926      0.091045     -0.355131
Pb       7.54082      7.68345      8.68173         0.741402     -0.131241     -0.154958
Pb       7.60076      7.60864     12.99322         0.040386      0.262549      0.063432
Pb       7.67755     11.52286      4.30063        -0.402050      0.209837     -0.028490
Pb       7.73181     11.47610      0.02059        -0.202088      0.134715     -0.593568
Pb       7.66739     11.38101      8.73581        -0.429006      0.424513     -0.419768
Pb       7.59301     11.42665     13.11009         0.137810      0.524196     -0.153646
Pb      11.49220      3.85643      4.40883        -0.165453      0.116362     -0.566862
Pb      11.38170      3.81290     17.30289         0.560145     -0.314847      0.031591
Pb      11.39273      0.11718      4.26571        -0.119586     -0.796564      0.060385
Pb      11.68256      0.01028     17.32329        -0.598114     -0.180240     -0.062640
Pb      11.59186      3.77785      8.75130        -0.568089     -0.470026     -0.775465
Pb      11.48529     15.20457      8.63028         0.211771      1.046692     -0.068232
Pb      11.45295      3.88445     13.01736         0.374288     -0.303494     -0.715342
Pb      11.48416     15.29730     13.01258         0.244760      0.305637     -0.211321
Pb      11.46767      7.74448      4.34912         0.473912      0.106777     -0.589461
Pb      11.50359      7.60092     17.39172         0.038182      0.069393     -0.358782
Pb      11.42212      7.57304      8.71483        -0.299722      0.749026     -0.557691
Pb      11.60069      7.74715     12.85830         0.044683     -0.140888      0.471438
Pb      11.42891     11.52576      4.44626         0.350081     -0.066017     -0.759433
Pb      11.62981     11.55213      0.01901        -0.385235      0.228133     -0.738022
Pb      11.41209     11.52913      8.76097         0.223177     -0.213371     -0.326363
Pb      11.38688     11.48106     13.00046         0.430323      0.241056     -0.112762
Ti       1.83899      1.97585      2.33019         1.137418     -1.067950      1.513514
Ti       1.94354      1.85166     15.34060         0.336505      0.345837      0.913221
Ti       1.97093     13.41277      2.30130         0.114146      0.683134      0.588697
Ti       1.88401     13.42956     15.45065         1.016848     -0.246001      0.585268
Ti      13.39022      1.94489      2.33480         0.506192     -0.442661      0.042744
Ti      13.57229      1.97578     15.37225        -1.297848     -0.942892     -0.327853
Ti      13.43286     13.43603      2.22939         0.096813     -0.229643      1.786196
Ti      13.51819     13.45329     15.30918        -0.807994      0.026624      1.733932
Ti       2.08798      1.95522      6.58007        -0.837157     -0.412581      0.233073
Ti       2.01620     13.53874      6.55338        -0.771136     -1.176867      0.887927
Ti      13.51007      1.90726      6.66982        -0.517810     -0.042143      2.579759
Ti      13.48918     13.42934      6.67681        -0.233386      0.194764      2.043419
Ti       2.09475      1.92096     11.05331        -1.422045     -0.261867      1.244878
Ti       1.77808     13.46369     11.00647         1.858016     -0.273221      1.109735
Ti      13.46060      1.91850     10.97898        -0.143126      0.072437      0.232549
Ti      13.48257     13.55808     10.92195        -0.685523     -0.982804      0.897635
Ti       1.87815      5.76964      2.24391         0.291032      0.176418     -0.943944
Ti       1.81630      5.71840     15.31072         1.836720      0.297618      1.744402
Ti      13.44709      5.65967      2.19130        -0.740317      2.071075      1.662705
Ti      13.45312      5.79792     15.34434         0.433643      0.186653      0.312911
Ti       1.86036      5.77960      6.72026         0.493559      0.370453      1.169941
Ti      13.42145      5.77980      6.72723         0.240764     -0.467823      1.992862
Ti       1.86525      5.78433     10.97092         0.902805      0.361952      1.501728
Ti      13.43576      5.80523     10.82295         0.077117     -0.247612      4.495848
Ti       1.78056      9.57460      2.32501         0.395544      0.237968      0.346537
Ti       1.87573      9.55309     15.39110        -0.331426      0.555207     -0.119381
Ti      13.36368      9.61971      2.23601        -0.198798     -0.369968      2.854908
Ti      13.36149      9.58780     15.40558         0.371213      0.300684      0.413862
Ti       1.88300      9.61223      6.58897        -0.718907     -0.094546      1.397185
Ti      13.34978      9.68072      6.69763         0.701218     -1.238082      0.966216
Ti       1.85468      9.63694     10.96017         0.316613      0.017209      1.473690
Ti      13.44702      9.68782     10.93267        -0.284506     -0.330633      0.495693
Ti       5.82826      1.94833      2.25707        -0.645680      0.264374      1.126564
Ti       5.77863      1.95971     15.47866        -0.452206     -0.795533     -0.467252
Ti       5.87812     13.44404      2.25006        -1.564213     -0.622644      0.936515
Ti       5.75021     13.39581     15.54650        -0.008704      0.204398     -0.114381
Ti       5.87125      1.86109      6.66897        -0.593088      0.181960     -0.123255
Ti       5.78534     13.46716      6.64545        -0.039688     -1.628548     -0.417384
Ti       5.82631      1.92879     10.99071        -0.242431     -0.566220      1.124148
Ti       5.73352     13.43872     10.96186        -0.206397      0.588219      1.338243
Ti       5.82378      5.74562      2.31764        -0.840694     -0.070030      0.371864
Ti       5.74610      5.84119     15.34401        -0.967147     -0.315193      2.250276
Ti       5.88034      5.62970      6.65202        -0.616022      1.781098      0.477079
Ti       5.75505      5.78027     11.01796        -0.696886     -0.307391      1.154836
Ti       5.67925      9.57230      2.27378         0.358542      0.395000      0.688721
Ti       5.75507      9.55840     15.37656        -0.020868      0.377167      1.759286
Ti       5.64568      9.59468      6.72077         0.386235      0.632739      0.868213
Ti       5.65529      9.68966     11.09037         0.397371     -0.981125      0.105770
Ti       9.64957      1.95760      2.19608        -0.676151     -0.877711      1.965312
Ti       9.62628      1.82906     15.29795         0.465478     -0.716270      2.065895
Ti       9.72651     13.37760      2.24298        -1.472034      0.872448      1.586472
Ti       9.62185     13.37210     15.39853         0.660659      0.177806      1.702398
Ti       9.68180      1.91966      6.59963        -0.750282      0.062201      1.340016
Ti       9.61190     13.40937      6.64849        -0.744166      0.614381     -0.137610
Ti       9.58450      1.92037     11.06590         0.510659     -0.345095     -0.319865
Ti       9.66401     13.46666     10.97916        -1.182932     -0.060704      1.234926
Ti       9.61822      5.74010      2.37291         0.234490     -0.154409      0.308743
Ti       9.64801      5.65100     15.25443        -0.460235      1.525030      2.203219
Ti       9.63982      5.77979      6.59570        -1.234611     -0.420141      1.524602
Ti       9.60308      5.77407     11.02170        -1.076163     -0.997002     -0.688113
Ti       9.55871      9.54472      2.20518        -0.097753      0.512637      1.895819
Ti       9.58492      9.56053     15.42207        -0.371910     -0.294996     -0.393555
Ti       9.54242      9.62798      6.74237        -0.129822     -1.037387      2.992665
Ti       9.52438      9.60780     11.11748         0.012932      0.561898     -1.236492
O       1.94232      1.87625      0.64692        -0.251798      0.269829     -1.943801
O       1.98422      1.66370     13.59898        -0.085586      0.930429      0.057218
O       1.92531     13.31367      0.57495        -0.305452      0.468562     -0.937771
O       2.00303     13.30749     13.69686        -0.531220      0.470922      0.168731
O      13.57485      1.94558      0.59615        -0.452386      0.082867     -0.522623
O      13.48577      1.86613     13.62954         0.114750      0.457060     -0.235439
O      13.43127     13.53274      0.50978         0.162872     -0.173474     -0.748311
O      13.54187     13.40773     13.58427        -0.222897     -0.162420     -0.422498
O       2.07669      1.87816      4.79019        -0.245812      0.548687      1.083048
O       1.98916     13.54902      4.80796        -0.153614     -0.173227     -0.117745
O      13.36541      2.04274      4.98552         0.211724     -0.023438     -2.288975
O      13.38112     13.32140      4.99668         0.171851      0.103457     -2.230228
O       2.00996      1.97064      9.32554         0.179850     -0.231709     -0.885137
O       2.10684     13.46066      9.28228        -0.746461      0.306806     -0.445110
O      13.47405      1.87034      9.22355         0.080755      0.173946     -0.012697
O      13.45414     13.54333      9.17023         0.040800     -0.015166      0.448543
O       1.92141      5.78212      0.46261        -0.185718      0.146654      0.803107
O       1.89261      5.81145     13.60002        -0.259618     -0.174736     -1.477207
O      13.43829      5.73631      0.47827         0.008522     -0.217126     -1.128043
O      13.47177      5.85577     13.61122        -0.053318     -0.267798     -0.414895
O       1.86224      5.74100      4.99627        -0.357767     -0.239078     -1.018028
O      13.64682      5.60790      5.03712        -0.524007     -0.074600     -1.982501
O       1.92538      5.85183      9.23459         0.194178     -0.181006     -0.645259
O      13.43541      5.88399      9.16224        -0.317169     -0.320751     -2.097861
O       1.77338      9.58962      0.53556         0.320701     -0.193528      0.274970
O       1.81213      9.69036     13.63125         0.082685     -0.211678      0.372814
O      13.28355      9.53414      0.54905         0.240134      0.028644     -1.835001
O      13.43616      9.74809     13.63611        -0.256508     -0.325709      0.001759
O       1.74058      9.56182      4.87773         0.359207      0.266651     -1.365849
O      13.25246      9.68251      4.97331         0.172497      0.230461     -1.135588
O       1.76347      9.60871      9.25847         0.472871     -0.097440     -1.907351
O      13.40062      9.47358      9.22038         0.100029      0.575523     -0.432485
O       5.78811      1.97418      0.53578         0.087537      0.119955     -1.163294
O       5.70426      1.82732     13.70254         0.337954      0.546152      0.643734
O       5.81718     13.37048      0.49716         0.401042     -0.005259     -0.038519
O       5.71442     13.48579     13.76609         0.269358      0.005034     -0.143739
O       5.77967      2.01112      4.91715         0.266555     -0.387534     -0.054278
O       5.82640     13.47331      4.87244        -0.072094     -0.032562      0.154608
O       6.00847      1.79410      9.25960        -0.569848      0.086421     -0.557100
O       5.69124     13.38342      9.19555        -0.082172      0.275212      0.751426
O       5.91348      5.73907      0.59511        -0.281761      0.029004     -0.861244
O       5.76427      5.76062     13.64966         0.021328      0.124607     -1.911808
O       5.84970      5.80399      4.89013        -0.115854     -0.300026     -0.206814
O       5.88874      5.85898      9.28998        -0.590339     -0.090065     -0.762531
O       5.62537      9.55902      0.52111         0.202807      0.121307      0.238573
O       5.81440      9.61202     13.64641        -0.265978     -0.159884     -0.906865
O       5.65444      9.55297      5.01602         0.265181     -0.249486     -1.907501
O       5.73424      9.59759      9.34413        -0.372743      0.334259     -0.089974
O       9.86663      1.85899      0.51058        -0.586108      0.520352     -1.848200
O       9.57394      1.89978     13.58717         0.191326     -0.113443     -0.835593
O       9.69892     13.39202      0.54121        -0.216223     -0.055695     -1.743164
O       9.62785     13.42565     13.67377        -0.170566      0.043844     -1.184730
O       9.57267      1.79805      4.86000         0.338121      0.694857     -0.320873
O       9.53152     13.38885      4.87243         0.351068     -0.125132      0.615293
O       9.59093      1.94156      9.31180        -0.373247     -0.004403     -0.600641
O       9.70481     13.45937      9.24615        -0.179372     -0.110755     -0.888547
O       9.56460      5.83139      0.59907         0.249375     -0.480112     -0.152806
O       9.54120      5.60548     13.57638         0.278703      0.106110     -1.719522
O       9.58164      5.67228      4.83055         0.298877      0.236349     -0.465132
O       9.50607      5.73457      9.24048         0.433756      0.006134      1.648979
O       9.50746      9.49815      0.48667         0.271436     -0.047975     -1.050869
O       9.58603      9.64936     13.65517         0.098605      0.064551     -0.666559
O       9.65042      9.66528      5.08848        -0.172570     -0.153607     -3.328671
O       9.53601      9.69095      9.34124         0.094424     -0.183311      0.044821
O       3.89280      1.98529      2.73553        -0.067081     -0.074017     -0.254195
O       3.84608      1.96566     15.89836         0.282466     -0.534292     -0.274730
O       3.84478     13.42615      2.61846         0.942990      0.091210      0.359343
O       3.92600     13.44628     15.95476        -1.472698     -0.215552     -0.196679
O      15.30036      1.94870      2.74351        -0.164626     -0.095507      0.214331
O       0.06224      1.93177     15.77567         0.454593      0.210590      0.183484
O      15.32846     13.36008      2.71910         0.005164      0.772871      0.102153
O       0.03165     13.46584     15.88528        -0.481206     -0.027141     -0.339184
O       3.90250      1.91851      7.13780         0.217937      0.240486     -0.113336
O       3.82150     13.41864      7.12430         0.588969      0.291074     -0.190896
O       0.11418      1.95253      7.05835        -0.161158     -0.367360     -0.265094
O      15.35562     13.57164      7.11006         1.179886     -0.534567     -0.366473
O       3.87898      1.93975     11.46908         0.112099     -0.509347     -0.083787
O       3.70546     13.45209     11.59147         1.155014     -0.163670     -0.649160
O       0.00514      1.94707     11.44211         0.068265      0.011753      0.139083
O      15.29459     13.43672     11.46831         0.266899      0.283569     -0.378902
O       3.75927      5.80963      2.71873         0.215227     -0.019466     -0.154846
O       3.80737      5.80564     15.72450         0.306936      0.231668      0.264433
O      15.27410      5.67718      2.69762         0.760673      0.267737      0.133529
O       0.04056      5.75622     15.84702        -1.149366     -0.251182     -0.120363
O       3.90706      5.73622      7.09349        -0.184334     -0.048787      0.310518
O      15.32094      5.69646      7.24420         1.036376      0.162948     -0.396665
O       3.79874      5.94307     11.48755         0.220967     -0.735542     -0.304647
O      15.28707      5.86993     11.39638         0.696754     -0.622550     -0.486092
O       3.74792      9.58578      2.81489         0.035769     -0.486277     -0.660463
O       3.78023      9.57548     15.83073        -0.189728      0.047867     -0.240790
O      15.27186      9.72984      2.74684         0.211810     -0.419031     -0.460917
O      15.28435      9.55009     15.83277         0.201246      0.587674     -0.032839
O       3.74059      9.69418      7.03282         0.201798     -0.388836      0.418100
O      15.30287      9.57771      7.07655         0.330070      0.276737      0.201815
O       3.74297      9.64060     11.51413         1.009728      0.058642     -0.309188
O       0.00478      9.51591     11.35108        -1.227456      0.576771      0.345412
O       7.78985      1.92837      2.57333        -2.019164      0.072985      0.190251
O       7.69707      1.86289     15.78848         0.520304      0.160262     -0.029053
O       7.69057     13.39458      2.70470         0.117287      0.028328     -0.251824
O       7.72992     13.39505     15.89143         0.267586      0.228450     -0.049767
O       7.71777      1.86794      7.04543         0.232704     -0.175266      0.174573
O       7.65027     13.37552      7.12872         1.100739      0.415018     -0.083962
O       7.72120      2.05214     11.50644        -1.692347     -0.558599     -0.004625
O       7.57973     13.48216     11.47761         0.594682     -0.159000     -0.345309
O       7.64641      5.78971      2.69588         0.896247      0.086036      0.448299
O       7.71839      5.78997     15.76954         0.276347     -0.319000     -0.104144
O       7.72810      5.83781      7.02759        -0.564710     -0.237282     -0.081672
O       7.60720      5.71024     11.54796         0.457289     -0.068581     -0.235114
O       7.68951      9.51173      2.70770        -0.653613      0.288435     -0.123799
O       7.62608      9.54579     15.74597         0.710394      0.034112      0.355991
O       7.59948      9.62901      7.19083         0.920828     -0.198231     -0.241619
O       7.61370      9.68798     11.46033         0.164753     -0.337038      0.272764
O      11.47670      1.94228      2.72473         1.357323      0.084383      0.384388
O      11.59955      1.86716     15.85685        -0.126665      0.764112     -0.733185
O      11.49543     13.50526      2.71489         1.103371     -0.406536      0.126395
O      11.58351     13.44043     15.81436         0.281760     -0.162804     -0.330931
O      11.53299      1.89547      7.05778         0.091948      0.486609     -0.008547
O      11.55458     13.40578      7.13159        -0.942779     -0.292240     -0.317823
O      11.47285      1.82302     11.32337         1.172272      0.694190      0.746901
O      11.49423     13.46901     11.44563         0.776893     -0.068689     -0.155386
O      11.59701      5.74998      2.70523        -1.293722     -0.143666      0.242358
O      11.57722      5.79958     15.75227        -0.976499     -0.911994     -0.121213
O      11.44239      5.68327      7.16233         1.003914      0.118043     -0.353089
O      11.49712      5.72112     11.45565         0.364995      0.340399     -0.528157
O      11.43441      9.59597      2.75211         0.189874      0.103597     -0.099072
O      11.45661      9.58577     15.83670         1.004500     -0.118292      0.014261
O      11.48603      9.51494      7.08135        -0.207376      0.537003      0.671161
O      11.47204      9.65197     11.36482         0.739714     -0.231786      0.456362
O       1.90366      3.90493      2.53142        -0.114615     -0.418925      0.848458
O       2.09959      3.84609     15.71840        -1.195329     -0.780337     -0.364078
O       1.93982      0.00526      2.68172        -0.405257      0.240233      0.136929
O       1.94502      0.00923     15.95642         0.099534      0.006205     -0.474720
O      13.39992      3.86589      2.68711        -0.064716     -1.353386      0.300775
O      13.56131      3.87363     15.65764        -0.388041     -0.256279      0.459483
O      13.41454     15.33153      2.82391         0.001407      0.796239     -0.453880
O      13.54648      0.01181     15.72273        -0.033099     -0.124271      0.279530
O       1.98132      3.82947      7.22025         0.046025     -0.239332     -0.723542
O       2.03135      0.00887      7.06787        -0.191121      1.001170      0.084312
O      13.46992      3.84325      7.19235        -0.278418     -0.892075      0.070978
O      13.45303     15.35168      7.07957         0.094948      0.761402     -0.315649
O       2.00045      3.91347     11.46848        -0.505575     -0.362922     -0.109212
O       1.87683      0.00321     11.48190         0.005340     -0.097214     -0.567701
O      13.49591      3.84808     11.42472        -0.600631      0.403663     -0.363535
O      13.41427      0.02461     11.46161         0.209623     -0.118805     -0.102743
O       1.67268      7.68355      2.72421         0.657495     -0.071308     -0.208185
O       1.79154      7.68318     15.75399         0.553631      0.286588      0.045761
O      13.36072      7.72180      2.78855         0.483809     -0.301930     -0.289979
O      13.44833      7.67582     15.81256        -0.186214      0.370428     -0.038755
O       1.90378      7.70082      6.99248         0.008080     -0.471520      0.469709
O      13.43212      7.60987      6.97976        -0.232559      0.823331      0.252884
O       1.94743      7.69838     11.47274        -0.436416     -0.008271     -0.188604
O      13.46759      7.71781     11.36664        -0.825009     -0.229173     -0.041977
O       1.99609     11.53883      2.63728        -0.696213     -1.371430      0.661075
O       1.82660     11.57278     15.87390         0.386196     -1.238459     -0.062532
O      13.45230     11.57308      2.65724        -0.920966     -0.627687     -0.130643
O      13.44707     11.52666     15.94576         0.141586     -0.267412     -0.731788
O       1.93309     11.60481      7.00152        -0.669910     -0.351228      0.194195
O      13.47683     11.53368      7.14979        -0.255178     -0.186023      0.089284
O       1.82946     11.50244     11.28367        -0.001463      0.702486      0.434312
O      13.43007     11.59755     11.32247         0.056164     -0.694946     -0.043094
O       5.78249      3.86732      2.75353         0.030470     -0.204469     -0.025288
O       5.75449      3.93755     15.76806         0.411625     -1.217329      0.228027
O       5.76213     15.35059      2.66715         0.288685      0.425854     -0.392754
O       5.76897     15.34001     15.91220         0.284632      0.840579      0.047439
O       5.92242      3.80944      7.04923        -0.470470     -0.316011      0.274882
O       5.79983     15.31497      7.07510        -0.207313      0.830785      0.163588
O       5.49679      3.81516     11.17137         1.013604      0.642721      0.855182
O       5.73684      0.02923     11.53046        -0.027396     -0.525812     -0.467897
O       5.65217      7.69681      2.74206         0.474603     -0.160907      0.024400
O       5.68235      7.66639     15.93089         0.417850      0.463171     -0.520097
O       5.78378      7.72346      7.12476        -0.514661     -0.929712      0.245123
O       5.71981      7.70390     11.48049         0.262299      0.561686      0.094034
O       5.73294     11.44872      2.79421         0.137332      0.160168     -0.481402
O       5.78897     11.47374     15.82942        -0.100588     -0.456595      0.119663
O       5.80097     11.52544      6.97922        -0.495507      0.128156      0.643299
O       5.76295     11.57203     11.60235        -0.615052     -0.051746     -0.749683
O       9.56008      3.79206      2.74089         0.425989      1.355691     -0.109831
O       9.58925      3.74003     15.69505         0.376919      0.592362      0.256711
O       9.54386      0.00548      2.64255         0.365780     -0.167915      0.171949
O       9.73166     15.29207     15.89761        -0.811119      0.719352     -0.712271
O       9.51290      3.85514      7.09352         0.411465     -0.579772     -0.405631
O       9.62820     15.35196      6.98943        -0.043886     -0.557837      0.298236
O       9.57985      3.80705     11.44182         0.426651      1.099355      0.309267
O       9.61266     15.32585     11.45453        -0.583292     -0.023623      0.247933
O       9.55760      7.64396      2.77279         0.428217      0.153893     -0.049559
O       9.65887      7.59941     15.65643        -0.220275      0.156864      0.447988
O       9.56884      7.63059      7.19585         0.259378      0.645796     -0.579128
O       9.58116      7.69601     11.39880        -0.110767     -0.592138      0.302172
O       9.56639     11.51126      2.62134         0.045333     -0.885736      0.201815
O       9.67129     11.48613     15.81806        -0.400417     -0.049044      0.199756
O       9.55310     11.51615      7.11512         0.518880      0.284596      0.251456
O       9.60090     11.54599     11.36942        -0.138414      0.342027      0.574284
