  # total energy = -7881.41657348 
CRSYTAL
PRIMVEC
    15.3600000000000000    0.0000000000000000    0.0000000000000000
     0.0000000000000000   15.3600000000000000    0.0000000000000000
     0.0000000000000000    0.0000000000000000    17.440000000000000
PRESSURE
0.400624 0.127055 -3.59127 -0.031777 -0.070279 -0.030498
PRIMCOORD
320 1
Pb       3.80251      3.84825      4.42743        -0.149697     -0.365666     -0.347378
Pb       3.97225      3.75674     17.36479        -0.767394      0.476707     -0.135657
Pb       3.78690     15.30765      4.39522         0.142629      0.092231     -0.568920
Pb       3.89450      0.02602     17.39455        -0.757755     -0.308961     -0.282349
Pb      15.35273      3.81544      4.45276        -0.010411     -0.312785     -0.762557
Pb       0.15707      3.86143      0.07271        -0.185835     -0.096754     -0.215436
Pb       0.06389     15.28788      4.33822        -0.407660     -0.111082     -0.544704
Pb      15.08817     15.27883      0.02702         0.663296      0.030089     -0.002615
Pb       3.73262      3.97493      8.56937         0.187799     -0.722627      0.706526
Pb       3.83057     15.34963      8.84862         0.004212     -0.113755     -0.608102
Pb      15.03438      3.95423      8.63723         0.944727     -0.138637     -0.234030
Pb      15.25606      0.19041      8.72520        -0.138052     -0.840147     -0.335963
Pb       3.87476      3.75154     12.93079        -0.534812     -0.163925      0.404625
Pb       3.72159     15.21772     12.92161         0.440296      0.690793      0.328173
Pb       0.00041      3.65967     13.14219         0.056089      0.454901     -0.362708
Pb       0.03507      0.01189     12.92183        -0.350508     -0.084964      0.528698
Pb       3.94068      7.66898      4.26311        -0.668797      0.223726      0.075399
Pb       3.66512      7.62583      0.04050         0.678401     -0.384560     -0.554473
Pb       0.22800      7.70979      4.31122        -0.641444      0.080134      0.063322
Pb      15.28215      7.78118     17.34599         0.054660     -0.323872     -0.073629
Pb       3.97162      7.63136      8.73917        -0.605312      0.333503     -0.379852
Pb      15.33893      7.63501      8.69250         0.321442      0.039917      0.095696
Pb       3.80300      7.61768     13.06523         0.006932      0.377023      0.034722
Pb       0.08573      7.68663     13.13961        -0.319374     -0.404645     -0.330391
Pb       3.61192     11.49157      4.31528         1.110453     -0.069228     -0.147545
Pb       4.03126     11.30291     17.31714        -1.019055      0.759812      0.120349
Pb       0.16980     11.67430      4.17314        -1.267038     -0.340260      0.700618
Pb      15.23660     11.47700     17.30113         0.270154     -0.222043      0.129229
Pb       3.78091     11.60566      8.72567         0.186574     -0.391949      0.038208
Pb      15.33401     11.33964      8.69070        -0.337223      0.626002      0.042657
Pb       3.97066     11.48222     12.96570        -0.569446     -0.312962      0.200705
Pb       0.15748     11.47671     13.16754        -0.328269     -0.144011     -0.638448
Pb       7.70798      3.70850      4.42514        -0.052615     -0.098079     -0.398706
Pb       7.67212      3.89255     17.31660        -0.337735      0.002296      0.053017
Pb       7.70036      0.02370      4.37030        -0.209955     -0.345859     -0.349393
Pb       7.38017     15.31883     17.33182         1.295785      0.154111      0.401014
Pb       7.65322      3.81770      8.69969         0.136118      0.239080      0.046213
Pb       7.67356     15.25424      8.57898         0.271240      0.119857      0.755094
Pb       7.83933      4.00590     13.28808        -0.074047     -0.260440     -1.084927
Pb       7.66953      0.16807     13.03082         0.048907     -0.275379     -0.439308
Pb       7.54685      7.48041      4.26786         0.899819      0.873700     -0.136193
Pb       7.60816      7.65045      0.00158        -0.298779      0.300340     -0.303398
Pb       7.59301      7.88409      8.63464         0.231319     -0.920033      0.262849
Pb       7.60505      7.60755     12.96312        -0.144798      0.307805      0.481784
Pb       7.70448     11.37582      4.38727        -0.241899      0.326587     -0.193722
Pb       7.51960     11.65428     17.32871         0.809480     -0.788034      0.129084
Pb       7.69299     11.48736      8.69145         0.277524      0.109174     -0.118579
Pb       7.88008     11.64285     13.06486        -0.719319     -0.583876     -0.321220
Pb      11.57510      3.75511      4.37120        -0.229971     -0.136882     -0.285434
Pb      11.57382      3.81204      0.06607         0.219899      0.098446     -0.062330
Pb      11.59262     15.32660      4.27709        -0.126868      0.114145      0.025245
Pb      11.37644     15.26829     17.25500         0.374614      0.053030      0.560231
Pb      11.56123      4.07645      8.69919        -0.538064     -0.486357     -0.446165
Pb      11.45671     15.27808      8.64629         0.353902      0.141654     -0.099817
Pb      11.55275      3.68174     13.32356         0.167750      0.536029     -1.198639
Pb      11.43308     15.33348     13.05483         0.078171      0.048281     -0.304336
Pb      11.57657      7.68592      4.20546        -0.492385      0.305517      0.105416
Pb      11.41752      7.58060      0.02477         0.342735      0.009562      0.362252
Pb      11.56236      7.69600      8.65741        -0.242982     -0.309735     -0.024422
Pb      11.38112      7.70126     13.03239         0.615991     -0.347243      0.055349
Pb      11.57273     11.37237      4.40298         0.117680     -0.062079     -0.441475
Pb      11.34318     11.49051     17.34583         0.177139     -0.064366      0.370931
Pb      11.50909     11.52184      8.87031         0.193405      0.154258     -1.085867
Pb      11.46064     11.43043     12.96920         0.541785      0.384466      0.057289
Ti       1.86846      1.90043      2.38844        -0.296639     -0.204703     -1.360421
Ti       1.74664      1.78676     15.50155         1.557115      0.995354     -1.722564
Ti       1.96777     13.38924      2.10377        -0.205345      0.867183     -0.262780
Ti       1.87776     13.37451     15.40953         0.611500      0.135915      1.269457
Ti      13.36050      1.87255      2.21056         0.771924     -0.139254      1.018435
Ti      13.38222      1.86063     15.41114        -0.009602      0.469060      0.919806
Ti      13.31769     13.42729      2.23290         1.242242      0.002623     -0.089526
Ti      13.37040     13.32635     15.34710        -0.274683     -0.185755     -0.640184
Ti       1.86429      1.90527      6.76240        -0.204422     -0.326360     -0.462930
Ti       1.87633     13.47996      6.79971        -0.918425      0.055415     -0.140560
Ti      13.30519      1.86417      6.59370         0.276976      0.221658     -0.189267
Ti      13.48183     13.38355      6.68601         0.234305     -0.421695     -0.272385
Ti       1.83143      1.88018     10.95388         0.631545      0.520349     -0.647262
Ti       1.86214     13.37596     10.96832        -0.325107     -0.752474     -0.591656
Ti      13.29016      1.93158     10.95178         0.291578      0.403555      0.831358
Ti      13.40546     13.49517     11.02812         0.273592     -0.656151     -1.479034
Ti       1.94940      5.71472      2.33402        -0.008723     -0.420773     -1.397868
Ti       1.91910      5.71199     15.42625         0.251091     -0.634098     -0.108317
Ti      13.48081      5.70712      2.36444         0.070900      0.215506     -0.887694
Ti      13.45469      5.72613     15.53253        -0.010126     -0.212930     -1.149646
Ti       1.94796      5.76544      6.72390        -0.751515      0.676430     -1.134970
Ti      13.40757      5.77857      6.42826        -0.087952     -0.196780      0.369134
Ti       1.84953      5.66411     11.07834        -1.000742      1.045908     -1.074876
Ti      13.32186      5.82085     11.16640         1.061795     -0.664389      1.029751
Ti       1.84959      9.55749      2.12848         1.233003      0.365439     -0.258657
Ti       1.93565      9.57623     15.34929         0.020378      0.142022     -0.696838
Ti      13.45845      9.64518      2.26718        -0.617922     -0.254194     -0.459337
Ti      13.31307      9.53626     15.31042         1.373989      0.534290      0.143424
Ti       1.86122      9.60826      6.69437         0.316879     -0.529487     -0.332388
Ti      13.39663      9.49070      6.68999         0.583911      1.150234     -1.768585
Ti       1.87252      9.53415     11.05765         0.847860     -0.291090     -0.472261
Ti      13.45085      9.63266     11.10230         0.454335     -0.231360     -0.582083
Ti       5.72644      1.99921      2.31634        -0.287611     -1.204868     -0.119979
Ti       5.67215      1.90128     15.22416        -0.307857      0.555757      2.394440
Ti       5.78626     13.46039      2.35526        -0.474467     -0.013946      0.082324
Ti       5.69921     13.41131     15.27217         0.144709     -0.010135     -0.929036
Ti       5.72923      1.85084      6.77057        -0.315161      0.219455     -0.560324
Ti       5.78117     13.37059      6.76828         0.009435     -0.154136     -1.127100
Ti       5.79588      1.93670     10.91445         0.132847     -0.894793      1.544671
Ti       5.81095     13.43368     11.07682        -0.140935      0.440247     -0.665469
Ti       5.73782      5.67678      2.35853        -0.009766      0.543301     -1.393366
Ti       5.73603      5.79113     15.29742        -0.303732      0.473129      0.419821
Ti       5.79225      5.67955      6.58469        -0.228092      0.410367      0.633531
Ti       5.66329      5.71224     10.98139         1.360969      0.068815     -0.795577
Ti       5.71149      9.67308      2.29745         0.287613     -0.512192     -0.905306
Ti       5.77460      9.53309     15.33022         0.107504     -0.735049     -1.268129
Ti       5.65476      9.63192      6.68400         0.578464      0.359248     -0.880450
Ti       5.74590      9.56890     11.02105        -0.514277      0.380059      0.682384
Ti       9.53244      1.80848      2.07774         0.249981      1.333041      0.178097
Ti       9.49633      1.91349     15.41754         0.035115     -0.874504     -0.572234
Ti       9.55589     13.41806      2.31808        -0.625078     -0.940937     -0.349674
Ti       9.56789     13.42798     15.27393        -0.291274      0.437257      0.766484
Ti       9.55996      1.94417      6.73492         0.783054     -0.062578      0.892984
Ti       9.67219     13.42035      6.61611        -0.353166     -0.767313      0.454007
Ti       9.54713      1.96190     10.90650         0.377342      0.263104     -0.605889
Ti       9.60825     13.51875     10.89998        -0.131167     -0.375235      0.310632
Ti       9.64119      5.57997      2.43711        -0.150001      1.086275     -0.128531
Ti       9.65894      5.75728     15.39239        -0.638421      0.138906     -0.193310
Ti       9.50707      5.79281      6.62725         1.089571      0.228706     -1.148659
Ti       9.61454      5.70563     11.06193        -0.427411      0.128553     -0.084217
Ti       9.51251      9.54067      2.26799         0.483032      0.379101     -0.223624
Ti       9.61325      9.52173     15.37603        -1.824174      0.653604      0.044822
Ti       9.59941      9.52733      6.66708        -0.144607      0.918259     -0.729207
Ti       9.52067      9.56114     11.06236         0.297179      0.071651     -0.504330
O       1.82329      1.97354      0.55232         0.357995     -0.311610      1.404866
O       1.72044      1.85563     13.60257        -0.085005     -0.042108      1.229673
O       2.03426     13.45459      0.31761        -0.165697     -0.133443      1.355190
O       1.89002     13.35047     13.65505         0.131923      0.213626     -0.405856
O      13.37153      1.74402      0.44563         0.110189      0.195581     -0.216650
O      13.44856      2.01010     13.64621        -0.118580     -0.337134      0.399192
O      13.36456     13.54313      0.40514        -0.033455     -0.693476      1.249283
O      13.18219     13.21428     13.57405         0.585268      0.612476      0.865920
O       1.84632      1.84630      4.93453         0.215900     -0.045136      0.890674
O       1.66278     13.55169      4.98501         0.941827     -0.188048      0.802801
O      13.20424      1.99075      4.78342         0.324254     -0.598615      1.117753
O      13.48995     13.38334      4.86919         0.063770      0.130152      0.965729
O       1.83687      1.93496      9.11322        -0.045788     -0.083945      2.012641
O       1.86277     13.43745      9.19207         0.320292     -0.156533      0.823998
O      13.35374      1.95575      9.18781         0.103524      0.040069      0.030796
O      13.34916     13.49649      9.18067         0.069497     -0.173267      1.631828
O       2.12172      5.69950      0.48056        -0.845285      0.053542      1.570252
O       1.91487      5.67416     13.63238        -0.024581      0.051807      0.814980
O      13.40141      5.67210      0.52621        -0.006059      0.296595      1.453479
O      13.25606      5.74143     13.75134         0.360655     -0.465635      0.389915
O       1.97165      5.84777      4.89391        -0.108976     -0.180450      1.194593
O      13.43667      5.64978      4.65820        -0.013456      0.337307      0.475053
O       1.81850      5.67235      9.19770         0.268081      0.025043      1.514116
O      13.38857      5.75985      9.39634        -0.222266      0.043714     -0.531284
O       1.95368      9.63602      0.30408        -0.325828     -0.455850      1.829365
O       1.89687      9.64080     13.48114         0.116914     -0.291375      2.108578
O      13.46064      9.75743      0.44486        -0.009297     -0.624265      1.535465
O      13.39837      9.68176     13.54308        -0.149788     -0.181057      0.293930
O       1.91879      9.52061      4.85294        -0.021694      0.079985      1.589030
O      13.43017      9.54670      4.84860        -0.250235      0.100778      1.397181
O       1.81773      9.47318      9.25417         0.089050      0.165061      0.241302
O      13.55457      9.57175      9.25194        -0.368794     -0.379942      1.454434
O       5.70283      2.05553      0.49742         0.033109     -0.534472      1.150967
O       5.78920      1.90170     13.53122        -0.074195      0.083776     -1.149196
O       5.74846     13.53649      0.53955         0.163561     -0.280738      0.694387
O       5.65224     13.46667     13.48077         0.185883     -0.004319      0.287251
O       5.73807      1.95510      4.98278         0.195843     -0.286558      0.440523
O       5.74689     13.31372      4.97454         0.041316      0.150510      0.892115
O       5.92353      1.75212      9.20224        -0.585532      0.452213     -0.750324
O       5.73681     13.44270      9.27357         0.063365      0.013841      0.589556
O       5.83188      5.60243      0.55053        -0.338998      0.241999      1.104836
O       5.76226      5.84782     13.49786        -0.124225     -0.492497      0.648996
O       5.68557      5.59875      4.77059         0.286172      0.584007      1.202238
O       5.79161      5.79595      9.11292        -0.467929     -0.084496      2.181073
O       5.80030      9.69478      0.45464        -0.177701     -0.313777      1.274843
O       5.75726      9.37391     13.50740        -0.212225      0.714728      1.398922
O       5.63873      9.85065      4.87423        -0.016099     -0.667993      0.980163
O       5.72434      9.57465      9.21917         0.171469     -0.312569      0.867428
O       9.51700      2.11575      0.28392         0.105773     -0.868837      1.273400
O       9.51727      1.71362     13.57430         0.056552      0.611493      1.165892
O       9.47980     13.34483      0.52291         0.307741      0.046380      1.162364
O       9.68252     13.55801     13.50205        -0.344484     -0.328029      0.211625
O       9.60562      1.85443      4.97331        -0.322233      0.005617      0.230543
O       9.49962     13.65606      4.86555         0.478830     -0.623675     -0.049633
O       9.52932      1.97795      9.06680         0.277264      0.241958      1.739191
O       9.65633     13.31664      9.11876         0.117022      0.294396      1.218111
O       9.75606      5.57166      0.65945        -0.427410      0.127849     -0.053434
O       9.60721      5.81568     13.59246         0.159428     -0.249745      1.204307
O       9.52745      5.92961      4.79914        -0.277049     -0.699980      1.173329
O       9.64158      5.74394      9.28970         0.075818     -0.216299      0.061672
O       9.51501      9.69509      0.45401         0.214914     -0.352983      0.836850
O       9.56566      9.55364     13.58332         0.165218     -0.009375      0.939550
O       9.64822      9.51477      4.87077        -0.244714      0.128335      1.230401
O       9.46812      9.64203      9.27730         0.228170     -0.414982      0.294391
O       3.78050      1.89464      2.84877         0.529261      0.222649     -0.394104
O       3.72543      2.01858     15.73033         1.413054     -1.028754     -0.196643
O       3.80674     13.39634      2.82438         0.072131     -0.080565     -0.504019
O       3.96098     13.46809     15.80005        -1.801478      0.118104     -0.135491
O      15.25732      1.95040      2.71909         1.089726     -0.421157      0.025379
O      15.30222      1.85976     15.89870        -1.211224      0.226755     -0.241749
O       0.06892     13.44235      2.62341        -0.152742      0.067600     -0.450369
O      15.31514     13.33669     15.73138         0.114884     -0.217662     -0.262156
O       3.85778      1.79934      7.17443        -0.638913      0.040534     -0.185647
O       3.82334     13.44529      7.15966        -0.230358      0.166758     -0.142236
O      15.28427      1.99993      6.97690        -0.199660     -0.328164      0.243548
O      15.33432     13.39912      7.21502        -0.224901      0.223522     -0.322398
O       3.81195      1.88328     11.44831        -0.655273     -0.083558     -0.730076
O       3.79975     13.45072     11.39757        -0.303324     -0.317702     -0.218448
O      15.30276      1.85843     11.39412         0.172013      0.209255     -0.271166
O      15.34615     13.42458     11.42941        -0.185092      0.076049     -0.021086
O       3.76716      5.69049      2.76425         1.073451      0.058360      0.113908
O       3.86165      5.85483     15.78126        -0.283548     -0.428380     -0.289399
O       0.01807      5.74701      2.75069        -0.446379     -0.071754     -0.298592
O      15.35471      5.77277     15.90233         0.302139     -0.173751     -0.216455
O       3.87667      5.79673      7.09145        -0.301632     -0.260932     -0.319653
O      15.26924      5.68506      6.88618         0.496033     -0.126758      0.320544
O       3.81729      5.76253     11.49388         0.032533     -0.399556     -0.753068
O      15.34384      5.77892     11.53965        -0.199505     -0.275279     -0.280354
O       3.80075      9.68762      2.63071        -0.381032     -0.459213     -0.041934
O       3.84992      9.50628     15.70093         0.055831     -0.004047      0.127711
O       0.03869      9.59213      2.67033        -0.199752     -0.263301     -0.505066
O      15.34166      9.59649     15.68341         0.054958      0.151118      0.095474
O       3.84571      9.65352      7.11449        -1.208514     -0.467040     -0.035569
O      15.34385      9.44436      7.08669         0.717955      0.470702     -0.208821
O       3.79437      9.61740     11.45616         1.116553     -0.210799     -0.432869
O       0.08742      9.49336     11.56577        -2.599240      0.193610     -0.267321
O       7.62692      1.88087      2.60616         0.107397      0.291501      0.199394
O       7.60959      1.85757     15.74921        -0.519734      0.279097     -0.330399
O       7.66608     13.44420      2.81334        -0.203770      0.070457     -0.304610
O       7.60580     13.41785     15.72401         0.655159      0.287605     -0.225512
O       7.67501      1.92119      7.19069         0.071852      0.089233     -0.922697
O       7.76082     13.30798      7.13774        -0.771404      0.084993     -0.446022
O       7.73112      1.97614     11.39996        -1.153151     -0.033861     -0.035709
O       7.68571     13.43727     11.48209         0.545110     -0.038348     -0.469984
O       7.61830      5.72538      2.72617         0.353131     -0.072182      0.054218
O       7.68903      5.76740     15.73877         0.318187     -0.005345     -0.024738
O       7.65354      5.66932      7.02274        -0.640791      0.048952     -0.383558
O       7.70646      5.66678     11.55948        -0.982727      0.179589     -0.724539
O       7.65578      9.49201      2.75740        -0.701768      0.122937     -0.104075
O       7.59684      9.49399     15.83565         1.373932      0.463209     -0.417292
O       7.64300      9.64388      7.10545         0.031016      0.057457     -0.405865
O       7.69098      9.63166     11.64055        -0.699623     -0.197139     -1.262206
O      11.48791      1.78549      2.52736        -1.176443      0.446803      0.096333
O      11.39975      1.87798     15.68382         1.395884      0.148004     -0.003687
O      11.51332     13.43709      2.70214        -0.965971     -0.207864     -0.251687
O      11.43782     13.33471     15.82191         0.351886      0.497281     -0.344410
O      11.51637      1.82761      7.16289        -0.967853      0.513736     -0.562805
O      11.60320     13.28658      7.06200        -0.884729      0.484184     -0.134105
O      11.46484      1.83250     11.45223        -0.294092      0.186481     -0.172729
O      11.49589     13.45761     11.35708        -0.849200     -0.024646     -0.120486
O      11.52331      5.62299      2.83390        -0.141922      0.379540     -0.616057
O      11.54449      5.70234     15.97345        -1.289938      0.316506     -0.427134
O      11.53121      5.92706      6.98250        -0.375496     -0.526394      0.133365
O      11.46787      5.71918     11.55194         0.195404      0.311665     -0.215263
O      11.50666      9.65227      2.74657         0.150449      0.189402     -0.480816
O      11.46983      9.48563     15.67746        -0.373970      0.263527      0.287816
O      11.52163      9.47055      7.03979        -0.428317     -0.162143      0.288789
O      11.52312      9.50744     11.38396        -0.015750      0.566561     -0.135253
O       1.86851      3.84798      2.80970        -0.049031     -0.551831      0.007687
O       1.89010      3.77201     15.89066        -0.462630      0.934784     -0.449539
O       1.97977     15.30060      2.69389        -0.354534      0.344939     -0.071398
O       1.85150     15.32715     15.81572         0.372838     -0.753001     -0.143580
O      13.37118      3.73979      2.69841        -0.000935      0.857904     -0.367894
O      13.38167      3.82635     15.93085         0.264189     -1.182019     -0.656799
O      13.42952     15.29847      2.69460         0.124301     -0.087518     -0.093237
O      13.41324     15.24881     15.73705        -0.320257      0.752279     -0.421073
O       1.89501      3.83170      7.08343         0.435078      0.057959     -0.388338
O       1.79060     15.34894      7.28720         0.453748      0.443540     -0.731411
O      13.29978      3.83431      6.94490        -0.058184      0.713788      0.162084
O      13.36221     15.34440      6.98394         0.410768     -0.026277     -0.044680
O       1.83974      3.81162     11.47559         0.375189     -0.744053     -0.265757
O       1.83111     15.30464     11.37393         0.339440      0.556082     -0.185241
O      13.30720      3.78156     11.45147         0.358633      0.181026      0.032330
O      13.38151     15.35202     11.42904         0.244353      0.230927      0.037167
O       1.93432      7.62583      2.66925         0.160549      1.111647     -0.334468
O       1.89266      7.64941     15.89849        -0.140993      0.202126     -0.658768
O      13.35235      7.72966      2.59667         0.349935     -0.654729     -0.229503
O      13.46695      7.67314     15.81115        -0.358870      0.265389      0.163235
O       1.89654      7.62394      7.19491         0.223007      0.285068     -0.581706
O      13.50625      7.60181      7.06566        -0.313022      0.053985     -0.045967
O       1.89841      7.62667     11.56373         0.314794     -0.630470     -0.466638
O      13.37289      7.66663     11.62790         0.306226      0.251852     -0.616270
O       1.89404     11.45807      2.58755         0.158968      0.532335     -0.300945
O       2.07196     11.43411     15.78846        -0.685406      0.875153     -0.576263
O      13.48194     11.56283      2.75442        -0.138780     -0.305778     -0.460553
O      13.35925     11.41943     15.86736        -0.106217      0.614291     -0.618369
O       1.85883     11.53512      7.06407         0.209120     -0.929429     -0.159126
O      13.48930     11.38758      7.14668        -0.206361      0.274136     -0.263946
O       1.80322     11.41521     11.40692         0.460904      1.775254     -0.193847
O      13.43873     11.55360     11.38042        -0.213710     -1.056284     -0.179617
O       5.69820      3.82299      2.82702         0.067293     -0.626900     -0.278096
O       5.71462      3.89593     15.71065         0.338011     -0.843360     -0.487359
O       5.74142     15.34391      2.74215        -0.296175      0.280648     -0.030693
O       5.75383     15.34812     15.78350        -0.581069      0.766985     -0.690578
O       5.65181      3.78830      7.09489         0.455891      0.538310     -0.186621
O       5.84809     15.26942      7.09891        -0.192418      0.389248     -0.164905
O       5.67181      3.80408     11.24809         0.026138      0.750153      0.100024
O       5.74443      0.03403     11.38183         0.021900     -0.305981      0.128428
O       5.61167      7.66595      2.65503         0.483710     -0.237597      0.045860
O       5.77092      7.65674     15.84661         0.047704     -0.335472     -0.037620
O       5.76590      7.66318      6.95441        -0.039343      0.017546     -0.087693
O       5.68773      7.67325     11.38566         0.411283     -0.464555     -0.569425
O       5.76258     11.49575      2.63359         0.238860      0.700008      0.060262
O       5.73916     11.49445     15.63065         0.059848     -0.190629      0.042776
O       5.70357     11.48479      7.31475         0.152294      0.400951     -0.655155
O       5.76028     11.51889     11.42990         0.082049     -0.325249     -0.146354
O       9.48889      3.72675      2.86394         0.463059     -0.180379     -0.636083
O       9.50376      3.84235     15.60254         0.287324      0.227488     -0.148509
O       9.51335      0.02649      2.55289         0.113008     -0.655690      0.056038
O       9.61951     15.30223     15.78076        -0.718968     -0.111326     -0.332410
O       9.60971      3.93478      7.05711         0.193227     -0.913593     -0.274631
O       9.60651     15.26346      7.08802         0.032485      0.835560     -0.089320
O       9.60448      3.82971     11.53988         0.206190     -0.390499     -0.240224
O       9.51225      0.05953     11.22898         0.285493     -1.131760      0.044647
O       9.60087      7.67703      2.68097         0.154412     -0.551156     -0.378126
O       9.58225      7.64534     15.96282         0.149231     -0.183214     -0.592631
O       9.44864      7.63285      7.14855         0.328504      0.616799     -0.023029
O       9.57595      7.66951     11.44623        -0.097901     -0.197718     -0.241120
O       9.46000     11.46455      2.79298         0.654704      0.658666     -0.340233
O       9.60022     11.55355     15.71222        -0.449925     -1.201023     -0.375654
O       9.67439     11.46672      7.07765        -0.072437     -0.508926     -0.383973
O       9.59732     11.48939     11.42270         0.024346      0.715491     -0.139329
