  # total energy = -7881.72596304 
CRSYTAL
PRIMVEC
    15.3600000000000000    0.0000000000000000    0.0000000000000000
     0.0000000000000000   15.3600000000000000    0.0000000000000000
     0.0000000000000000    0.0000000000000000    17.440000000000000
PRESSURE
1.88916 2.29173 -1.44995 -0.195375 -0.143524 -0.018705
PRIMCOORD
320 1
Pb       3.82099      3.82675      4.36825        -0.592918      0.296124     -0.411217
Pb       3.87909      3.83279     17.38895         0.014494      0.010561     -0.207751
Pb       3.81387      0.02250      4.28785        -0.192914     -0.047352     -0.215750
Pb       3.67032      0.01835     17.39519         0.939769     -0.132210      0.677475
Pb       0.02455      3.72136      4.35171         0.103586      0.624395      0.600961
Pb       0.07178      3.98011     17.38720        -0.172357     -0.315096      0.177422
Pb       0.03358     15.33534      4.29130        -0.333837      0.029352      0.637037
Pb      15.24055     15.28793     17.39859        -0.000797      0.224424      0.240314
Pb       3.75850      3.72692      8.75035         0.107560      0.328806      0.041456
Pb       3.91162      0.01133      8.57199        -0.917412     -0.527967      1.114509
Pb      15.24680      3.87794      8.65639        -0.143023      0.134790      0.159542
Pb      15.23007      0.03039      8.66482         0.035052     -0.474616      0.380927
Pb       3.67213      3.73116     13.07703         0.623851     -0.037699      0.110584
Pb       3.72043     15.29397     12.97464        -0.260574      0.510438      0.455538
Pb       0.02486      3.79623     13.05583        -0.072308      0.194572     -0.017963
Pb       0.02257     15.33810     13.04218        -0.013321     -0.287122     -0.002891
Pb       3.85074      7.64492      4.32214         0.123113     -0.146806     -0.390122
Pb       3.78599      7.57735     17.34895         0.015265      0.564337      0.221412
Pb       0.07300      7.80373      4.36367        -0.508326     -0.494287      0.131567
Pb      15.11928      7.68914     17.34388         0.649858      0.175450      0.757738
Pb       3.88745      7.68737      8.70069        -0.075572      0.296329      0.096333
Pb       0.08099      7.59374      8.63829        -0.639178     -0.072758      0.763330
Pb       3.78145      7.57479     12.95048         0.264925      0.691638      1.152397
Pb       0.02783      7.62614     13.09101        -0.115610      0.025864      0.379337
Pb       3.78794     11.59221      4.20907         0.025558     -0.273194      0.324636
Pb       3.98016     11.57635     17.40455        -0.421488     -0.306180      0.099916
Pb      15.33037     11.57505      4.36540         0.141969     -0.301663     -0.224140
Pb      15.29040     11.59767     17.27275         0.242232     -0.556792      0.895736
Pb       3.85850     11.54672      8.60461        -0.390129     -0.082541      0.169167
Pb      15.24185     11.39634      8.66489         0.357119      0.502054      0.145316
Pb       3.87084     11.50920     13.16598        -0.362381     -0.626292     -0.281011
Pb       0.09709     11.58285     13.08937        -0.044054     -0.305427      0.353104
Pb       7.72601      3.72902      4.39312         0.142757      0.371338      0.168659
Pb       7.66052      3.90677     17.36115         0.000569     -0.151595      0.464654
Pb       7.73372      0.05626      4.33551         0.028575      0.151977     -0.199795
Pb       7.63338      0.08057     17.31743         0.101006     -0.386863      0.564160
Pb       7.68929      3.75625      8.76619        -0.423202      0.170789      0.121875
Pb       7.64182     15.17051      8.64976         0.303721      0.698521      0.931278
Pb       7.80786      3.86309     13.15623        -0.267866      0.295187     -0.586294
Pb       7.60139      0.12447     13.05484         0.640466     -0.483672      0.448351
Pb       7.68828      7.54412      4.29642         0.352134      0.316524      0.649959
Pb       7.65038      7.76391     17.37373        -0.002555     -0.614759      0.608948
Pb       7.63702      7.70052      8.63432         0.136194     -0.034509      0.532878
Pb       7.52092      7.68409     12.99798         0.506608      0.017433      0.133365
Pb       7.66181     11.55835      4.30802        -0.041528     -0.456028      0.540545
Pb       7.76477     11.49728      0.03746         0.178168      0.152494      0.000662
Pb       7.45160     11.53963      8.53242         0.954068     -0.347656      1.477314
Pb       7.70573     11.43157     13.05960        -0.109433     -0.392902     -0.413535
Pb      11.43821      3.80514      4.29386        -0.277728     -0.183170      1.189865
Pb      11.74690      3.86976     17.41465        -0.956280     -0.096575      0.243207
Pb      11.44772     15.24868      4.28972         0.163528      0.583650      0.268955
Pb      11.42482     15.29095     17.43262         0.306543      0.206052     -0.072433
Pb      11.35859      3.87718      8.69483         0.848815     -0.306716      0.301193
Pb      11.54356     15.30171      8.67976        -0.195427     -0.002348      0.212890
Pb      11.60781      3.73750     13.10499        -0.457378      0.137099     -0.254061
Pb      11.61784      0.00512     12.92123        -0.628210     -0.203129      1.212215
Pb      11.45095      7.70452      4.27949         0.172689      0.076623      1.129573
Pb      11.58876      7.62638     17.36924        -0.214510      0.282126      0.911829
Pb      11.45033      7.66844      8.71619         0.253746     -0.276927     -0.285746
Pb      11.40846      7.68694     13.01428         0.461639     -0.127947      0.167478
Pb      11.58719     11.44060      4.31291        -0.255154      0.338604      0.221128
Pb      11.44101     11.41633     17.36200         0.296799      0.381632      1.022909
Pb      11.64170     11.49769      8.57576        -0.470629      0.237776      0.627702
Pb      11.53468     11.44919     12.98089        -0.330985      0.243822      0.988933
Ti       1.80364      1.84591      2.29832         1.181337      0.845735     -0.251816
Ti       1.82729      1.91424     15.49460         0.235628      0.146359     -1.346686
Ti       1.89237     13.38828      2.17437        -0.452235      0.527489      1.005042
Ti       1.86853     13.46178     15.44756         0.816267     -0.191916      0.467476
Ti      13.37927      1.94126      2.33410         0.060532     -0.401308     -0.942909
Ti      13.41152      1.89383     15.51030        -0.846878     -1.098161     -0.758143
Ti      13.47346     13.45516      2.36722        -2.468899     -0.246597     -1.148497
Ti      13.34389     13.40654     15.39480         0.611880      0.702115     -0.867127
Ti       1.84679      1.87795      6.69183        -0.228909      0.105625     -0.061970
Ti       1.77456     13.45710      6.73407         0.644624     -0.749501     -0.259255
Ti      13.40888      1.91300      6.70806        -1.109496     -1.249902     -0.564237
Ti      13.38275     13.41789      6.69972        -0.184135     -0.033744     -0.556430
Ti       1.76834      1.87896     11.01348         1.611561     -0.745305      0.712626
Ti       1.92828     13.31828     11.05789        -1.091967      0.861337     -1.323204
Ti      13.39347      1.87840     11.00455        -0.129485     -0.012744     -1.058702
Ti      13.35751     13.29606     11.13821         1.068864      1.217721     -2.113430
Ti       1.81525      5.78487      2.30790         0.641823     -0.920687     -0.362306
Ti       1.92099      5.80851     15.43462         0.096401     -0.024883     -0.490588
Ti      13.42561      5.73464      2.59447         0.292323      1.309600     -1.619333
Ti      13.40561      5.68873     15.33757         0.414093      1.264511     -0.713671
Ti       1.93847      5.70855      6.83916        -0.308347      0.402073     -1.745492
Ti      13.38416      5.69137      6.68382         0.214307      0.647677     -0.582820
Ti       1.88467      5.76623     11.05159        -0.645111     -0.347800     -0.512463
Ti      13.43846      5.73993     11.08615        -0.366760     -0.311809     -2.367305
Ti       1.95249      9.56054      2.25239        -0.186915      0.451275     -1.934554
Ti       1.89694      9.61896     15.49306         1.098666      0.018408     -1.126498
Ti      13.49321      9.62172      2.42307         0.075278     -0.432976     -1.038707
Ti      13.45363      9.65017     15.32339         0.034259     -0.786474     -0.782685
Ti       1.95836      9.58420      6.67081         0.496674     -0.213520      0.649049
Ti      13.48007      9.45262      6.74346        -0.364036      0.109856     -1.235269
Ti       1.91423      9.57711     11.07931         0.928205     -0.026036     -0.722919
Ti      13.55785      9.55624     11.09009        -0.554129     -0.635839     -0.861113
Ti       5.76629      1.96205      2.39596        -0.184030     -1.035022     -1.441595
Ti       5.70759      1.85843     15.43583        -0.373281      0.774513     -1.754781
Ti       5.72320     13.47788      2.37573         0.101997      0.370621     -0.367413
Ti       5.79482     13.41588     15.34946        -0.360209      0.043242      1.333007
Ti       5.74329      1.89520      6.70668        -0.020928      0.386672     -0.352230
Ti       5.70537     13.45621      6.58238        -0.967595     -0.662590     -0.655414
Ti       5.73899      1.91870     11.12912        -0.923017      0.581272      0.280233
Ti       5.72519     13.49389     11.17265         0.019114     -1.695210     -1.014269
Ti       5.77336      5.66208      2.33345        -0.263277      1.354792     -0.627660
Ti       5.80327      5.72764     15.36488        -1.092218     -0.053231     -0.270789
Ti       5.78050      5.66225      6.73250        -0.242409      0.179222     -0.169597
Ti       5.71070      5.77277     11.01979         1.126568     -0.900250     -0.249036
Ti       5.85831      9.56356      2.31062        -1.283528     -0.125961     -0.708487
Ti       5.78291      9.58714     15.50477        -0.711208     -0.765693     -0.813194
Ti       5.84477      9.51772      6.59232        -0.708176      0.381766     -0.045271
Ti       5.73677      9.60015     11.04407         0.237377     -0.364155     -0.387608
Ti       9.62577      1.95019      2.21573        -0.727759     -0.606830      0.893370
Ti       9.54783      1.99347     15.43531         0.850680     -0.552078     -1.487353
Ti       9.56915     13.40518      2.43898         0.074448      0.397548     -1.228704
Ti       9.60515     13.48476     15.42867         0.009821      0.220235     -0.582543
Ti       9.55171      1.88790      6.79234         0.591258     -0.946964     -1.396719
Ti       9.55168     13.45445      6.70311         0.540884     -0.310437     -0.789713
Ti       9.53145      1.86398     11.08921         0.406507      0.431736     -0.393961
Ti       9.55236     13.38450     11.10401        -0.406815      0.672983     -1.567557
Ti       9.58835      5.68231      2.33715        -0.797875      0.966569     -0.632513
Ti       9.59671      5.80206     15.45855         0.120839     -0.991508     -0.438977
Ti       9.58043      5.70226      6.81364        -0.551954      1.068484     -0.079807
Ti       9.65632      5.78067     11.03982        -1.170679     -1.076197     -1.157201
Ti       9.61741      9.62409      2.40801         0.266319     -0.482383     -0.975213
Ti       9.66205      9.58614     15.42789        -0.972033     -0.062986      0.042514
Ti       9.67201      9.66492      6.79714        -1.669929     -1.324165     -2.102833
Ti       9.69070      9.60541     10.90493        -1.806521     -0.112905     -0.339969
O       1.87355      1.85757      0.52016        -0.433500      0.368950     -0.003093
O       1.85307      1.76976     13.65147        -0.324347      0.327319      1.321691
O       1.88872     13.38146      0.44370        -0.109152      0.177719     -0.483966
O       1.97836     13.43290     13.69484        -0.293109      0.022827     -0.903220
O      13.43562      2.06252      0.45160        -0.144230     -0.215278      2.002767
O      13.33058      1.68887     13.74473         0.619546      0.726139     -0.242838
O      13.29949     13.40633      0.60285         0.270088      0.060151     -0.404969
O      13.31060     13.31165     13.60208         0.360192      0.468714      0.121217
O       1.84804      1.81936      4.90576         0.002388      0.035212      0.530855
O       1.79400     13.49704      4.97637        -0.200011     -0.094285     -0.457276
O      13.36722      1.75190      4.96862        -0.016163      0.290358     -0.818944
O      13.33542     13.43186      4.93169         0.275736     -0.073989     -0.738223
O       1.86400      1.91713      9.27672        -0.353822     -0.157297     -0.237663
O       1.86665     13.28690      9.29259        -0.000724     -0.135734     -0.326462
O      13.35255      1.78457      9.18142         0.300568      0.476892      1.410800
O      13.37329     13.27967      9.27787        -0.006238     -0.062476      1.023946
O       1.86945      5.79477      0.49515        -0.022200     -0.406422      0.924458
O       1.86696      5.67681     13.68134        -0.196434      0.320481     -0.947623
O      13.46292      5.73009      0.74293        -0.307543     -0.370155      0.483341
O      13.41451      5.78546     13.56189        -0.203823     -0.335021      0.640921
O       1.91397      5.69834      5.03908         0.364088      0.252058      0.322751
O      13.41909      5.87379      4.91822         0.198807     -0.388141     -0.270366
O       1.70444      5.79148      9.27617         0.694070     -0.345665      0.582085
O      13.41299      5.64295      9.18629        -0.205845      0.041180      1.602300
O       1.86911      9.57211      0.41355         0.011959      0.192087      1.904944
O       2.11457      9.60544     13.69120        -0.725776      0.211160      0.495294
O      13.52196      9.57412      0.66675        -0.251527      0.313880     -0.965461
O      13.47891      9.65656     13.54992        -0.373354     -0.239893      0.681176
O       1.95763      9.54826      4.90571        -0.084547     -0.212867     -0.302372
O      13.57889      9.47113      4.92402        -0.302041      0.278015      0.536176
O       1.96446      9.51750      9.28979        -0.460966      0.294063      0.773066
O      13.51235      9.57003      9.23114        -0.287136      0.170320      1.675420
O       5.78875      1.91616      0.59920        -0.091061      0.156299      0.284989
O       5.56205      1.90847     13.61176         0.915059     -0.325458      1.201364
O       5.70909     13.50691      0.60895         0.270974     -0.319569      0.116830
O       5.69218     13.36472     13.62290         0.124491      0.106223     -0.897873
O       5.67253      2.01118      4.93355        -0.035167     -0.302584     -0.039196
O       5.59891     13.52398      4.82343         0.235578     -0.270757      0.523281
O       5.76908      1.82517      9.38673        -0.379836      0.192681     -0.554207
O       5.73936     13.19958      9.41912        -0.301471      0.974241     -0.642427
O       5.76749      5.61898      0.53789        -0.229201      0.039235      0.662542
O       5.78575      5.75895     13.59835         0.098695      0.135945      0.341328
O       5.79796      5.69198      4.93578        -0.687155     -0.130952      0.657894
O       5.84161      5.80458      9.23213        -0.371928     -0.400008      0.953073
O       5.73525      9.64315      0.49274         0.486164     -0.068490      0.768592
O       5.91254      9.53745     13.70926        -0.374167      0.118549      0.353413
O       5.81105      9.62671      4.82433        -0.211703     -0.534186      0.459726
O       5.69747      9.44637      9.27470         0.275152      0.650664      0.095053
O       9.69711      1.97747      0.49974        -0.290608     -0.243888     -1.051988
O       9.37945      1.94608     13.56980         0.624954      0.249570      1.024051
O       9.53705     13.30266      0.62743         0.251899      0.414278      0.457996
O       9.73644     13.49832     13.70719        -0.613494     -0.537948     -0.671139
O       9.40865      1.93378      4.98420         0.490667     -0.137780      0.577557
O       9.54530     13.47372      4.89491        -0.060500      0.123359      0.814624
O       9.41246      1.87791      9.29628         0.517716     -0.042379      0.351376
O       9.56700     13.47819      9.30647        -0.203214     -0.197706      0.757261
O       9.51796      5.75459      0.57682         0.334881     -0.063940      0.324654
O       9.65791      5.62762     13.67552        -0.061775      0.386064      0.314369
O       9.34984      5.66400      5.10529         0.286020     -0.003975     -1.707486
O       9.63609      5.68849      9.16334         0.068204     -0.143356      1.243554
O       9.56502      9.70819      0.56585         0.230131     -0.145215      1.179106
O       9.54247      9.58171     13.68872         0.343181     -0.018219     -0.170020
O       9.47438      9.48643      4.93194         0.715867      0.552277      1.030437
O       9.55895      9.61218      9.10461         0.624570     -0.073843      1.348500
O       3.71433      1.84089      2.62499         0.532699      0.130412      0.592641
O       3.80991      1.84608     15.77959         0.161473      0.193737      0.422990
O       3.71352     13.48740      2.70945         0.814333      0.258610     -0.007589
O       3.79504     13.50663     15.92670         0.884388     -0.360294     -0.698554
O      15.25156      1.87002      2.89817        -0.451170      0.258668     -1.015563
O      15.26284      2.04513     15.82092         1.526211     -0.760033      0.069447
O      15.24983     13.38757      2.53773         1.803915      0.137241      0.745339
O      15.34241     13.48455     15.77827        -1.089334      0.204590      0.076039
O       3.74567      1.88373      7.18370         0.140272     -0.296917     -0.416162
O       3.70948     13.43108      7.01843         1.265522     -0.050825      0.314094
O      15.26425      1.87301      7.10299         1.140708     -0.145502      0.084263
O      15.21896     13.25982      7.08703         1.005455      0.436227      0.189899
O       3.69271      1.79995     11.58782         0.317716      0.963866     -0.910513
O       3.73985     13.37847     11.43863         1.683178     -0.091131      0.467192
O      15.27443      1.82385     11.60579         0.126296      0.198453     -0.747671
O      15.32608     13.32851     11.48861        -0.069824      0.170910      0.225104
O       3.79147      5.73119      2.79888        -0.428851      0.225836     -0.204027
O       3.79887      5.63439     15.68298         0.680642      0.595004      0.745269
O      15.30769      5.69189      2.84448         0.695533      0.002317     -0.120728
O      15.34442      5.79694     15.79194        -0.897025     -0.089040     -0.030798
O       3.80242      5.71328      7.29260         0.515948     -0.289242     -0.520714
O      15.31251      5.73096      7.13563         0.015190     -0.211152     -0.116045
O       3.77442      5.73612     11.47795         0.106717     -0.040012     -0.696280
O      15.23984      5.75956     11.48860         2.114118      0.120287      0.258332
O       3.87557      9.48080      2.59578        -0.762541      0.257939      0.493033
O       3.78502      9.61407     15.83831         1.024270      0.336376      0.314777
O       0.03176      9.70023      2.74757         0.826747     -0.051531      0.372222
O      15.32064      9.50425     15.71126        -0.620860      0.460081      0.158966
O       3.85628      9.51201      7.16229         0.268269      0.225666     -0.779532
O      15.29904      9.42892      7.16180         1.127078      0.562698     -0.601043
O       3.82490      9.50303     11.43858         0.438965      0.014803      0.135817
O       0.03883      9.52926     11.66120        -0.260128      0.527055     -0.979671
O       7.69633      1.86748      2.70700        -0.884540      0.391235      0.048537
O       7.68789      2.02613     15.76656        -1.351600     -0.636810      0.331145
O       7.60630     13.41030      2.82307         0.476090      0.208003     -0.258305
O       7.72583     13.48686     15.77518        -0.845110     -0.660358     -0.005545
O       7.58936      1.83065      7.04297        -0.273951      0.188664      0.425900
O       7.61140     13.42171      7.11615        -0.073863      0.122215     -0.690050
O       7.65857      1.80782     11.45555        -0.765615      0.209220      0.115618
O       7.61858     13.45115     11.44356         0.685363      0.273100      0.592016
O       7.63981      5.72750      2.82897         0.569907     -0.506988     -0.568309
O       7.65706      5.84136     15.86974         0.533758     -0.337843     -0.445939
O       7.63145      5.56376      7.03836        -0.670880      0.075042      0.841407
O       7.71002      5.82559     11.49182         0.219384     -0.479132     -0.443678
O       7.70237      9.72628      2.67118        -0.139582     -0.521875     -0.048696
O       7.69469      9.54128     15.88419        -0.112608      0.316836     -0.170575
O       7.68317      9.58925      7.12404        -1.011967     -0.141720     -0.308019
O       7.76918      9.45133     11.45349        -0.148677      0.271340     -0.250001
O      11.45458      1.97743      2.70960         0.827399      0.105418      0.012936
O      11.48542      1.97636     15.70949         0.202833      0.145013      0.583570
O      11.44543     13.33628      2.80833         0.013241      0.589732      0.112860
O      11.53207     13.59448     15.77361        -0.647129     -0.958483      0.541533
O      11.46413      1.71835      7.11463        -0.291244      0.730580      0.012684
O      11.45024     13.36756      7.07276        -0.077378      0.057398      0.124745
O      11.53262      1.98239     11.54590         0.096025     -0.172004     -0.693683
O      11.44587     13.29752     11.45842         0.767198     -0.009833     -0.074036
O      11.42791      5.77876      2.90633         0.384655     -0.589462     -0.480966
O      11.53048      5.78400     15.88443         0.157991     -0.499655     -0.330441
O      11.44221      5.69391      6.82008         0.621874     -0.444915      1.218660
O      11.55630      5.57530     11.37386        -0.824825      0.484442      0.469505
O      11.53505      9.52723      2.74504        -0.469922      0.691507      0.157828
O      11.50775      9.58340     15.83815         0.689732      0.189237     -0.265930
O      11.48295      9.49776      7.14469         1.126587      0.268117     -0.186056
O      11.52198      9.57979     11.62113         0.265785      0.092749     -1.414116
O       1.77901      3.76512      2.73414         0.259978      0.555261     -0.170793
O       1.94714      3.85006     15.71036        -0.514753     -0.945141      0.720295
O       1.72808     15.31974      2.67346         0.282103     -0.243993     -0.096182
O       1.87779      0.00470     15.96647        -0.767040      0.573557     -0.650096
O      13.31670      3.86380      2.97927         0.577592     -1.049328     -0.865058
O      13.47698      3.86549     15.76656        -0.440601      0.297431     -0.124899
O      13.25110      0.04822      2.59180         0.381019      0.050209      0.208833
O      13.42041     15.29380     15.91738         0.106340      0.816025     -0.051291
O       1.81228      3.78894      7.08144         0.361138     -0.516086      0.337609
O       1.74938     15.31756      7.09313         0.176694      0.506074      0.256324
O      13.37026      3.72493      6.98212        -0.126078      1.713953      0.372694
O      13.36431     15.27197      7.06453         0.473268     -0.255555      0.531835
O       1.87208      3.84130     11.36896        -0.509776     -0.334460      0.409642
O       1.87555     15.28055     11.33502        -0.525932      0.339743      0.486233
O      13.55895      3.82224     11.43389        -0.443681     -1.075285      0.213302
O      13.36917     15.30792     11.30099         0.104705     -0.029195      0.427320
O       1.79850      7.65894      2.61903         0.330482      0.143925      0.359462
O       1.95779      7.72397     15.74808        -0.162433     -0.988741      0.171397
O      13.52620      7.73327      2.64251        -0.264801     -1.155194      0.961630
O      13.32241      7.71149     15.83571         0.454191     -0.440314     -0.523319
O       1.93815      7.63633      7.16799        -0.147577      0.235329     -0.333324
O      13.33903      7.55157      7.13720         0.001888      0.833811      0.074628
O       1.87372      7.63888     11.57526        -0.143249     -0.169274     -0.487192
O      13.43748      7.67225     11.45922        -0.409216      0.191859     -0.039037
O       1.92167     11.58073      2.64907        -0.046294     -1.275315      0.233845
O       1.77190     11.60713     15.74498         0.391259     -1.131629      0.197797
O      13.35252     11.53283      2.71915         0.253140      0.051075      0.749174
O      13.45925     11.52585     15.69241        -0.308776     -0.264154      0.496589
O       1.90012     11.44627      6.91342        -0.320377     -0.025859      0.653430
O      13.40007     11.40564      6.97032        -0.212077     -0.098753      0.485879
O       2.05135     11.44311     11.49802        -0.932941     -0.277377      0.215196
O      13.50289     11.47044     11.42999        -0.380828     -0.940915      0.170525
O       5.63593      3.84074      2.72533         0.273510     -0.867238      0.328505
O       5.74800      3.83293     15.75654         0.040639     -0.497103      0.294120
O       5.75318      0.01900      2.78597        -0.276390      0.257374      0.141558
O       5.87014     15.30022     15.77557        -0.416311      0.868731     -0.182916
O       5.60040      3.73174      7.25933         0.498134      0.272530     -0.529070
O       5.67514     15.28934      7.06009         0.108548      0.582937      0.017601
O       5.71434      3.83799     11.47928        -0.004132     -0.350758     -0.360651
O       5.61809     15.32649     11.43333         0.421565      0.414670      0.287963
O       5.86134      7.61137      2.63884        -0.412109      0.861903      0.190077
O       5.64150      7.60938     15.88548         0.506194      0.543305     -0.216681
O       5.80083      7.62848      7.07021        -0.180907     -0.151166     -0.468553
O       5.76723      7.63672     11.38795        -0.314935      0.027432      0.521630
O       5.69085     11.53712      2.76758        -0.115122     -0.237448     -0.339847
O       5.68136     11.48983     15.72805         0.465419      0.673128      0.243438
O       5.78191     11.53202      6.95038        -0.684246     -0.241739     -0.035975
O       5.85460     11.42430     11.39377        -0.387662      0.329747      0.864636
O       9.47135      3.79228      2.69067         0.520194      0.771588      0.274055
O       9.55326      3.83241     15.87540         0.187828      1.253590     -0.297748
O       9.55542      0.04758      2.73121         0.211950     -0.838853     -0.117813
O       9.56905      0.08392     15.72936        -0.010827     -0.697345      0.769943
O       9.57717      3.69028      7.16593        -0.138652      1.336836      0.298879
O       9.53882     15.33135      7.17983        -0.283109     -0.899993     -0.174125
O       9.54345      3.79968     11.41794        -0.049841      0.196120      0.099543
O       9.67322     15.33565     11.50704        -0.388255     -0.080492     -0.238608
O       9.66665      7.65179      2.79505        -1.229441      0.205088     -0.481835
O       9.64847      7.64975     15.84082        -0.118336      0.476275     -0.042515
O       9.55320      7.67217      7.18793         0.050837     -0.767811     -0.150119
O       9.73995      7.64334     11.30771         0.222316      0.098483      0.110180
O       9.56554     11.52744      2.81717         0.189452     -0.616711      0.108353
O       9.61335     11.49389     15.90470        -0.114296      0.429914     -0.627852
O       9.53557     11.49990      7.05673         0.179230      1.020482     -0.037373
O       9.50654     11.44577     11.42381         0.364915      0.239384      0.080946
