  # total energy = -7871.92740243 
CRSYTAL
PRIMVEC
    15.2000000000000000    0.0000000000000000    0.0000000000000000
     0.0000000000000000   15.2000000000000000    0.0000000000000000
     0.0000000000000000    0.0000000000000000    17.000000000000000
PRESSURE
7.06916 8.08745 -0.15638 -0.090323 -0.104702 -0.147502
PRIMCOORD
320 1
Pb       3.61040      3.87221      4.33928         0.244534     -0.446176     -0.072800
Pb       4.05501      3.94326      0.01084        -1.392657     -0.362780     -0.130332
Pb       3.58820      0.26634      4.39557         0.588487     -0.501434     -0.468928
Pb       3.91344     15.14029     16.94983        -0.460078      0.334557      0.211821
Pb       0.06421      3.91797      4.20169        -0.737115     -0.225266     -0.105176
Pb       0.22250      3.88404     16.92174        -0.129517     -0.270186     -0.076994
Pb      15.13417      0.32950      4.57626         0.248784     -0.842546     -0.739199
Pb       0.08336     15.03455     16.93985        -0.214708      0.926709     -0.059791
Pb       4.00162      3.89169      8.37971        -0.369481     -0.232871      0.294206
Pb       3.86929     14.93266      8.79469        -0.503747      0.702898     -0.993247
Pb       0.18533      3.62753      8.73324        -1.425486     -0.076516     -0.392588
Pb      14.82997     15.09648      8.52343         1.031807      0.491253      0.911308
Pb       3.84859      3.67463     12.54244        -0.290015     -0.190121      0.276846
Pb       3.82452      0.02483     12.86946        -0.114022      0.207188     -0.961353
Pb      15.13473      3.87559     12.69869         0.661914     -0.870804     -0.157687
Pb       0.09268     15.18866     12.93061         0.102816      0.001917     -0.873275
Pb       3.67413      7.68854      4.37456         0.385691      0.721014     -0.041223
Pb       3.78534      7.64746     16.97939         0.317244     -0.115940      0.119444
Pb      15.02734      7.88939      4.37615         0.541462     -0.502565     -0.917564
Pb      15.11635      7.48073     16.82045         0.223461      0.113945      0.177102
Pb       3.85691      7.58423      8.30676         0.042181      0.111659     -0.018225
Pb      15.01994      7.48301      8.52501         0.388978     -0.055793     -0.590101
Pb       3.68727      7.40196     12.60311         0.260507      0.663335      0.394539
Pb      15.19207      7.35403     12.76753        -0.318684      0.542376      0.223407
Pb       3.45518     11.50967      4.40480         1.092451     -0.564710     -0.430599
Pb       4.11168     11.46407      0.34549        -0.156466     -0.470929     -0.939644
Pb      15.06913     11.53464      4.23179         0.582176     -0.276850     -0.419023
Pb       0.16184     11.37816     16.87926        -0.521719      0.106424      0.256678
Pb       3.64957     11.40626      8.57484         0.540909     -0.186230     -0.572870
Pb      15.04942     11.39296      8.62453        -0.094349      0.275545     -0.584254
Pb       3.68463     11.27567     12.69653         0.317787      0.008945      0.132219
Pb      15.14176     10.97770     13.01930        -0.468822      0.225559     -0.603193
Pb       7.54952      3.82200      4.27786         0.413974      0.216307     -0.851431
Pb       7.57843      3.79470      0.14135         0.039826     -0.215785     -0.375341
Pb       7.56415     15.09416      4.25032         0.020878      0.105199     -0.499134
Pb       7.68027     15.06562     16.96932        -0.052306      0.420804      0.827326
Pb       7.71660      3.62624      8.36710         0.168164      1.015024      0.100499
Pb       7.65604     15.18149      8.49745        -0.118082     -0.358770     -0.048977
Pb       7.68006      3.81815     12.79793        -0.198489     -0.531395     -0.776769
Pb       7.57207     15.07076     12.88570         0.246782      1.020656     -1.225306
Pb       7.78493      7.52274      4.06624        -0.513614      0.611450      0.803647
Pb       7.63602      7.73232      0.16719        -0.196963      0.650168     -0.383448
Pb       7.50969      7.65405      8.25044         0.192403     -0.358830      0.697114
Pb       7.39530      7.57724     12.63431         1.047663      0.298453     -0.585297
Pb       7.45652     11.36552      4.29932        -0.171308     -0.181712     -0.423946
Pb       7.53973     11.49917      0.02664         0.517388     -0.859391     -0.226020
Pb       7.56927     11.57379      8.63207        -0.135658     -0.538562     -0.036597
Pb       7.54680     11.32184     12.73122         0.147310     -0.326274     -0.517758
Pb      11.40504      3.96996      4.06381        -0.402459     -0.419072      0.186623
Pb      11.33076      3.58958     16.98009         0.328456      0.265892     -0.073965
Pb      11.52823     15.14426      4.09072        -0.230289      0.251711      0.843657
Pb      11.47343     15.15993     16.96161         0.043623     -0.078095     -0.472122
Pb      11.47820      3.80723      8.46548        -0.450689     -0.234068     -0.387348
Pb      11.29709      0.04658      8.42503         0.371398     -0.787389      0.176099
Pb      11.29563      3.64555     12.82284        -0.271791      0.300587     -0.455648
Pb      11.41087     15.17393     12.67001        -0.232322     -0.621734      0.283069
Pb      11.52068      7.61088      4.06598        -0.746139     -0.177218     -0.087088
Pb      11.41912      7.55354     16.90441        -0.704288      0.046914      0.397660
Pb      11.26161      7.49368      8.72064         0.137889     -0.032025     -1.223186
Pb      11.34972      7.56748     12.97310         0.420916      0.122594     -0.626318
Pb      11.37300     11.26783      4.13883         0.368429      0.837434      0.431982
Pb      11.49679     11.47862     16.69786        -0.793564      0.243869      1.087521
Pb      11.26525     11.45360      8.53298         0.721153      0.207425     -0.173967
Pb      11.24617     11.21451     12.48908         0.745600      0.060180      1.094121
Ti       1.79261      1.90612      2.13013         0.550473      0.173258     -0.640266
Ti       1.84610      1.87566     14.88730         0.224673      1.397892     -0.431427
Ti       1.97218     13.34133      2.04503        -1.300770     -0.573568     -0.534743
Ti       2.01395     13.19349     14.89988        -0.262596      1.229687     -0.113075
Ti      13.26839      1.97590      2.07566         0.835239     -0.310237     -0.684889
Ti      13.31230      1.89581     14.83017        -0.076214     -0.349816      1.001510
Ti      13.50677     13.46046      2.22583        -1.012382     -2.378356     -0.536054
Ti      13.47553     13.29709     14.90570        -1.942885      0.330685     -0.669079
Ti       1.88362      1.95566      6.65143        -0.345057     -1.401703     -0.348291
Ti       1.90271     13.37434      6.60813        -0.849710     -0.583204      0.331613
Ti      13.18640      1.92592      6.46681         0.184170      0.173076      1.051008
Ti      13.30802     13.19532      6.45977        -1.130876      1.503104      0.253793
Ti       1.90336      1.77273     10.56904        -0.523485      0.903713      1.985928
Ti       1.84063     13.19164     10.86918         0.655913      0.420427     -0.036770
Ti      13.23984      1.78014     10.76248         0.743557     -0.428241     -1.289176
Ti      13.40096     13.13276     10.91831        -1.522302      0.822303     -1.636589
Ti       1.87028      5.82363      2.34916        -1.300141     -0.518456     -1.946177
Ti       1.99155      5.73746     14.93160        -0.297403     -1.397546      0.210600
Ti      13.26072      5.73220      2.04643         0.921701      0.161961      0.675319
Ti      13.15258      5.58999     14.96670         0.762252      0.192873     -0.777151
Ti       1.73634      5.64939      6.61785         0.842259      0.928055     -0.881803
Ti      13.27221      5.69784      6.36575        -0.991128     -1.610453     -0.875554
Ti       1.91937      5.61761     10.57909        -0.212359     -0.198176     -0.082624
Ti      13.17589      5.53590     10.82197         0.120223      1.013346     -0.924483
Ti       1.76291      9.52872      2.06892        -0.071723      0.158695      2.072453
Ti       1.96641      9.44590     14.96171        -0.039831     -0.582627     -0.756911
Ti      13.20878      9.57558      2.06577         1.060630      0.393215     -1.163877
Ti      13.18933      9.45123     15.07123         0.735717     -0.408657     -1.709499
Ti       1.83813      9.57548      6.60225        -0.342711     -1.041080     -1.188699
Ti      13.23732      9.43684      6.51332        -1.036745      0.758746     -0.141965
Ti       1.86763      9.30843     10.67343        -0.116561      0.294873      0.652909
Ti      13.34359      9.29577     10.68431        -1.506523      0.846424      1.369028
Ti       5.62985      1.91309      2.21432         0.117412      0.066665      0.122115
Ti       5.68128      1.89330     15.11520        -0.131754      0.051793     -1.491592
Ti       5.74939     13.35676      2.30709         0.230637     -0.614863      0.366447
Ti       5.75802     13.27014     14.84734        -0.683357     -0.829163      1.563018
Ti       5.65439      1.92797      6.34967        -0.628594     -0.686463      0.499298
Ti       5.71910     13.36955      6.51418        -2.230144     -0.986476     -1.642505
Ti       5.73793      1.88466     10.53496        -0.149208     -0.809873      0.424239
Ti       5.65614     13.23837     10.75833         0.608696      0.968100      0.089614
Ti       5.52240      5.73073      2.32947         2.563000     -0.052675     -0.460537
Ti       5.78055      5.79728     14.91854        -1.337450     -0.584177      0.807372
Ti       5.72692      5.67515      6.34849        -0.163961      1.096427     -0.644383
Ti       5.72582      5.66884     10.60226         1.271381      0.223366     -0.850835
Ti       5.52267      9.50271      2.38432         1.726497      0.001539     -0.351648
Ti       5.70224      9.44389     14.79389        -0.026314      1.193507      1.055957
Ti       5.77500      9.63481      6.54338        -1.632895     -0.408442     -1.391798
Ti       5.64482      9.50809     10.61580         1.084441     -1.132340     -1.065264
Ti       9.47349      1.81571      2.24871        -0.123946      0.936749     -0.568040
Ti       9.42832      1.83058     15.03218         0.991456     -0.165831     -0.666003
Ti       9.68643     13.32338      2.24593        -0.870625      0.161700     -0.170879
Ti       9.47688     13.27902     14.86626         1.231050     -1.346712     -0.369145
Ti       9.39878      1.73545      6.29185         1.506191      1.383448     -0.484821
Ti       9.46038     13.15548      6.44357         1.168262      0.959258     -0.140989
Ti       9.40074      1.81404     10.68879         0.625398      0.509085      0.979303
Ti       9.49933     13.25222     10.80116        -0.238665      1.059666     -1.171935
Ti       9.43454      5.71642      2.03099         0.246661      0.031945      0.956276
Ti       9.36444      5.69401     14.97150         1.837280      0.165100      0.250542
Ti       9.48106      5.63410      6.43848         1.019333     -0.099169     -0.634029
Ti       9.50767      5.71959     10.71318        -0.863401     -0.997417      0.198115
Ti       9.44168      9.71215      2.19681        -0.622688     -2.298964     -1.268581
Ti       9.39742      9.53684     14.89947        -1.131117      0.272473      0.164999
Ti       9.54890      9.45552      6.39815         0.020864     -1.053458     -0.891763
Ti       9.45857      9.41774     10.55226        -0.860622      0.344890      0.506878
O       1.82154      1.98503      0.34004        -0.204205     -0.210646      0.571752
O       1.76169      2.02429     13.00561         0.570223     -0.288965      1.641799
O       1.90601     13.19142      0.09531         0.010886      0.187732      2.161155
O       1.87292     13.36801     13.07667         0.400049     -0.672655      0.441275
O      13.27650      1.80363      0.25239         0.040984      0.455603      1.615895
O      13.40325      1.75659     12.98726        -0.421101      0.326067      0.928376
O      13.43762     13.32812      0.40743         0.318747      0.057622     -0.065718
O      13.41320     13.34683     13.11239        -0.040950     -0.154213     -0.196219
O       1.79094      1.87645      4.69626         0.155381     -0.129918      0.991478
O       1.80503     13.06923      4.82291         0.069245      1.154850      0.471828
O      13.37247      1.77656      4.69974        -0.564389      0.284159     -0.121284
O      13.31402     13.34465      4.67567         0.171065     -0.181679     -0.116673
O       1.91343      1.86131      8.80031         0.259248      0.216360     -0.120546
O       1.96243     13.23149      9.05439        -0.303988      0.005796      0.601646
O      13.20618      1.95741      8.89505        -0.160843     -0.093736      0.453650
O      13.36914     13.26771      9.00982        -0.222308     -1.043444      0.992400
O       2.03360      5.83894      0.50030        -0.407555     -0.337327      0.842393
O       1.95334      5.71635     13.11965         0.292392     -0.267123      0.567250
O      13.28065      5.69642      0.27108         0.035291      0.337270     -0.369665
O      13.13862      5.57362     13.09556         0.408512      0.255912      0.861484
O       1.69932      5.50529      4.76813         0.520454      0.729627     -0.263986
O      13.28344      5.76842      4.49526        -0.206131     -0.195149      1.060097
O       1.85375      5.66410      8.76798         0.192410      0.190074      0.447121
O      13.03017      5.56603      8.94790         0.810334      0.511487      1.339308
O       1.89832      9.55306      0.32801        -0.103042     -0.001005     -1.297624
O       1.92169      9.23299     13.11910         0.252101      0.898655      0.741809
O      13.21487      9.44217      0.19750         0.010442      0.146187      0.532818
O      13.16850      9.39234     13.20463         0.077271      0.309646      0.630352
O       1.70697      9.62973      4.71391         0.391254     -0.480180      1.315296
O      13.10502      9.55242      4.63543         0.598699     -0.531436      0.865892
O       1.75303      9.30304      8.90773        -0.164345      0.073975      0.289383
O      13.27178      9.44746      8.90297         0.298703     -0.554251      0.128752
O       5.66362      1.90053      0.36569        -0.357848     -0.031048      0.589944
O       5.69922      1.72464     13.25236        -0.173649      0.335689      1.679068
O       5.70774     13.23171      0.41087        -0.456091      0.229488      1.619320
O       5.80740     13.39386     13.06011        -0.536471     -0.223916      0.396124
O       5.63054      1.85828      4.54795         0.198880      0.120140      0.619855
O       5.60198     13.32036      4.64041         0.574522      0.062090      0.806508
O       5.66217      1.83360      8.73055         0.343668      0.370260      0.693209
O       5.63865     13.26004      8.89573         0.086682     -0.376727      0.757163
O       5.54917      5.76926      0.46008         0.523002      0.133618      1.001063
O       5.64157      5.81099     13.13789         0.378529     -0.412490      0.083214
O       5.72547      5.45328      4.53310        -0.083099      0.852047      1.314158
O       5.75986      5.62384      8.80922        -0.313103     -0.005963      0.111079
O       5.69818      9.55111      0.48798        -0.266798     -0.256657      1.470273
O       5.68076      9.46691     12.98263        -0.112767     -0.240270      0.518862
O       5.55230      9.55936      4.71914        -0.008411      0.023365      0.064556
O       5.75776      9.57397      8.74958        -0.111000     -0.069940      0.963289
O       9.56373      1.60260      0.38511         0.191684      0.829087      0.733855
O       9.52257      1.89658     13.17818        -0.422776     -0.119084      1.242941
O       9.57014     13.35070      0.47821         0.052808     -0.071255     -0.177102
O       9.38643     13.21286     13.03614         0.082704     -0.032707      0.620146
O       9.45004      1.97199      4.49364         0.000928     -0.498569      0.876670
O       9.46277     13.23531      4.67836        -0.094953     -0.019399      0.063967
O       9.40946      1.70898      8.89018        -0.307007      0.201962      0.414237
O       9.43252     13.39007      8.89217        -0.218129     -0.552183      0.903560
O       9.44457      5.75944      0.25933        -0.450302      0.007595     -0.344192
O       9.36298      5.49534     13.17419         0.447792      0.332926      0.533944
O       9.43626      5.55829      4.58613         0.372777      0.284210      1.055810
O       9.66340      5.64747      8.92863        -0.561611      0.173718      0.171105
O       9.35905      9.55343      0.32239        -0.094844     -0.121487      1.421731
O       9.25911      9.65345     13.09131         0.599289     -0.195144      0.278561
O       9.58981      9.49032      4.51903         0.214958      0.076427      1.173994
O       9.47510      9.32908      8.76873        -0.308534      0.601587      0.312867
O       3.73919      1.87399      2.65848        -0.083264      0.111014     -0.436387
O       3.67884      1.96396     15.35584         1.892298     -0.870949     -0.465143
O       3.69120     13.15002      2.52012         1.228917      0.257131     -0.144455
O       3.83841     13.34982     15.25420         0.263332      0.099692     -0.537250
O      15.14892      1.79471      2.55402         0.074131      0.138520     -0.024941
O      15.16505      2.12809     15.22947         0.133706     -0.353257     -0.216148
O       0.08636     13.37630      2.68259         0.514874     -0.165447     -0.486913
O       0.09758     13.28920     15.24956        -0.500185     -0.294536     -0.013100
O       3.78611      1.92481      6.71933         0.072775      0.170936     -0.334080
O       3.75805     13.28314      7.01048        -0.085211     -0.219526     -0.310014
O      15.14391      1.93407      6.91135        -0.096239     -0.077754     -0.581755
O      15.11244     13.32865      7.00021         1.202119     -1.006508     -0.604504
O       3.86126      1.83475     11.00630        -0.401298     -0.199996      0.017837
O       3.76896     13.37056     11.21973         0.351448     -0.281430     -0.356600
O      15.16236      2.02698     10.82746         1.010640      0.211849      0.177884
O       0.01836     13.12235     11.16759         0.897368     -0.382956     -0.146124
O       3.77019      5.67077      2.82254        -1.839821      0.386391     -0.250422
O       3.85680      5.75280     15.43319         0.425946      0.400208     -1.027272
O      15.17311      5.66982      2.48373        -0.177688      0.172371     -0.060984
O      15.10990      5.70380     15.15836         1.040924      0.082572      0.288190
O       3.79522      5.63862      6.67864        -0.513170      0.621362      0.211555
O      15.11852      5.49169      6.88537        -0.667287      0.210363      0.161021
O       3.88571      5.74608     10.89237        -0.969532      0.039466      0.273279
O       0.00351      5.57149     10.95796        -0.409571     -0.080484      0.015463
O       3.72183      9.43135      2.58893        -1.360967     -0.072811     -0.188586
O       3.81592      9.41498     15.25463         0.077329      0.130056     -0.242997
O      15.07647      9.52372      2.38834         0.445827     -0.186602      0.198641
O      15.13584      9.25023     15.11064         0.363062      1.205437      0.364084
O       3.73327      9.55666      6.94151        -0.862376     -0.839100     -0.341436
O      15.03713      9.55556      6.93777         0.390599     -0.189769     -0.310273
O       3.81011      9.15258     10.85480        -0.493747      0.361662      0.202970
O      15.11735      9.40348     11.25814         1.651889      0.132015     -0.861004
O       7.61512      1.85453      2.41582        -0.570652      0.234374      0.230161
O       7.60094      1.86109     15.45988        -0.221603     -0.183537     -0.377910
O       7.65147     13.32059      2.60778        -1.229764     -0.088354     -0.124236
O       7.58663     13.27282     15.37110        -0.215153      0.157695     -0.709416
O       7.56406      1.95622      6.73875        -0.420856     -0.358740     -0.239368
O       7.49043     13.23819      6.95555         1.465794     -0.308558     -0.565868
O       7.58448      1.90999     11.16875        -0.228900      0.047134     -0.689681
O       7.57504     13.26807     11.01341        -0.421324     -0.882387     -0.105850
O       7.54426      5.71545      2.64067         0.228814     -0.507638     -1.171735
O       7.60042      5.58216     15.35855        -0.514983      0.259997      0.033298
O       7.60482      5.60984      6.86801        -0.213302     -0.062035     -0.545448
O       7.60712      5.57346     11.12042         0.036315     -0.514865      0.024274
O       7.54774      9.51742      2.73599         0.203270      0.262655     -0.704671
O       7.50353      9.58074     15.31849         0.229256     -0.141015     -0.215510
O       7.61615      9.58309      6.62541         0.368456      0.087897      0.367022
O       7.53224      9.64267     11.00435         0.477525      0.368425     -0.231044
O      11.46355      1.90327      2.60508        -0.475964     -0.225105     -0.362935
O      11.42581      1.81278     15.29910        -0.227649     -0.499760     -0.423325
O      11.51712     13.21760      2.58483        -0.349718      0.788711     -0.116181
O      11.44308     13.27441     15.19637        -0.221324      0.046150     -0.027945
O      11.25714      1.73937      6.83451         0.749148      0.100332     -0.741071
O      11.32412     13.29641      6.88185         0.134653      0.185631     -0.155325
O      11.36389      1.60784     11.10698        -0.124400      1.084824     -0.457051
O      11.37599     13.24073     11.01042         0.441535      0.513185      0.579413
O      11.36150      5.79909      2.30017        -0.102592     -0.201091      0.565871
O      11.33906      5.71621     15.35624        -1.400310     -0.236628     -0.352534
O      11.38273      5.70349      6.84139        -0.237457      0.502446     -0.464785
O      11.33481      5.80591     11.26708        -0.269678      0.161390     -0.635920
O      11.34218      9.62232      2.39892        -0.028692     -0.443309      0.199177
O      11.22840      9.54862     15.16596         1.419277      0.061802      0.338638
O      11.37066      9.29297      6.95934         0.669305      0.316195     -0.539272
O      11.32272      9.33597     11.01541         0.270664     -0.306310     -0.056501
O       1.71527      3.77496      2.55070         1.008980      0.299654      0.007885
O       2.03917      3.88584     15.33903        -0.887302      0.352759     -0.175584
O       2.03667     15.13247      2.21699        -0.449973      0.890475      0.480581
O       1.70016      0.04629     15.08002         0.636955     -0.381022      0.173067
O      13.20183      3.86305      2.41398         0.370288     -0.774990     -0.058180
O      13.17632      3.76978     15.26675        -0.161917     -0.665807     -0.246256
O      13.34115      0.02848      2.50647        -0.611587      0.908964      0.098933
O      13.36752     15.17755     15.29771         0.522849      0.274523     -0.495501
O       1.89328      3.77195      6.86171         0.140808     -0.057158      0.260930
O       1.95422     15.16920      6.95398        -0.404780      0.609704     -0.785665
O      13.05465      3.80702      6.58973         0.194260     -1.113959      0.225460
O      13.33083     15.13365      6.85804        -0.881821      0.835382     -0.487589
O       1.98278      3.82243     11.00831         0.267617     -0.813130     -0.375414
O       1.90330      0.04252     11.17534        -0.365433     -1.074776     -0.689419
O      13.13782      3.72616     11.10973        -0.195714     -0.150308      0.057773
O      13.49062     15.10457     10.82945        -0.480133      0.274107      1.101995
O       1.71487      7.65730      2.53913         0.782486     -0.103799      0.730736
O       1.84051      7.60283     15.33465         0.633314     -0.664861      0.233048
O      13.27147      7.65470      2.44909        -0.293119      0.160802      0.044970
O      13.06072      7.52253     15.19056         0.437307      0.775797      0.292417
O       1.61965      7.60701      6.75149         0.604828     -0.622500      0.125368
O      13.37277      7.48695      6.54455         0.308993      2.132253      0.923311
O       1.87922      7.42168     11.12411        -0.612397      0.962886     -0.561882
O      13.41120      7.48831     11.19799        -0.721641     -0.109311     -0.890347
O       1.74778     11.33966      2.56415         0.350141      0.838903     -0.477851
O       1.88633     11.38527     15.06350        -0.326661     -1.509566     -0.028578
O      13.29920     11.43486      2.46471         0.306764     -0.303705      0.134677
O      13.39369     11.38943     15.21687         0.080777     -0.254300      0.071254
O       1.79563     11.35219      6.95186         0.030552      1.288732      0.525548
O      13.12754     11.41906      6.86588         0.272212     -1.601143     -0.001653
O       2.07950     11.18343     11.06860        -0.523499      0.792416     -0.213552
O      13.17557     11.24278     11.09497         0.662748      0.100602     -0.171887
O       5.63728      3.79022      2.51652         0.168963     -0.369096     -0.436847
O       5.87486      3.81898     15.37899        -1.168904     -0.290646     -0.282533
O       5.75313      0.00419      2.57709        -0.729946     -0.309168     -0.279702
O       5.71938     15.10806     15.52787         0.008815      0.874641     -1.318160
O       5.62161      3.87081      6.70259         0.565090     -2.097414      0.219592
O       5.58911      0.00795      6.68626         0.497896      0.457907      0.233452
O       5.63361      3.72660     10.89126         0.211007      0.387122      0.302163
O       5.79357     15.13381     10.89882        -0.413427      0.620621      0.202522
O       5.64935      7.57479      2.74542        -0.271261      0.331221     -0.316057
O       5.81391      7.64202     15.31981        -0.095727     -0.688547     -0.265714
O       5.62330      7.60921      6.64481         0.200136     -0.402404      0.436738
O       6.05389      7.57070     10.69277        -1.034071      0.132043      0.731625
O       5.55612     11.41278      2.60025         0.584101      0.124964     -0.264471
O       5.72361     11.38823     15.33992        -0.626934      0.390815     -0.723105
O       5.49412     11.43129      6.74582         0.760127      0.643797      0.348893
O       5.53806     11.34737     11.08001        -0.274944      0.391930     -0.223167
O       9.51047      3.83081      2.37269         0.072073     -0.516545     -0.163271
O       9.62710      3.65903     15.42764        -1.135589      0.927021     -0.486971
O       9.54536     15.18815      2.62947         0.143865     -0.329976      0.244647
O       9.41907     15.04795     15.31361         0.261581      1.630359     -0.325985
O       9.54419      3.72367      6.76685        -0.502798     -0.109332      0.059509
O       9.37996     15.08976      6.69812        -0.544691      0.692211      0.021473
O       9.60341      3.76825     11.04676        -0.062863     -0.693576     -0.053126
O       9.43124     15.16779     11.17214        -0.268041     -0.214330     -0.172339
O       9.43441      7.61885      2.36803        -0.077460      0.243818      0.213503
O       9.35372      7.63550     15.01754         0.218583     -0.912778      0.558080
O       9.40845      7.55638      6.73155        -0.033153     -0.203558     -0.144065
O       9.25177      7.62197     10.91558         0.372551     -0.963263      0.421316
O       9.44248     11.49035      2.56381        -0.032681     -0.569355      0.095754
O       9.38911     11.45605     15.41140         0.303827     -0.097521     -0.535891
O       9.63231     11.29847      6.73495        -0.540404      0.460871      0.492440
O       9.56456     11.37088     10.86821        -0.482250     -0.443768     -0.109714
