  # total energy = -7879.20156850 
CRSYTAL
PRIMVEC
    15.2000000000000000    0.0000000000000000    0.0000000000000000
     0.0000000000000000   15.2000000000000000    0.0000000000000000
     0.0000000000000000    0.0000000000000000    17.000000000000000
PRESSURE
8.61693 8.93024 3.81205 -0.009528 0.239331 -0.014117
PRIMCOORD
320 1
Pb       3.68258      3.87253      4.24036         0.360865     -0.213523     -0.003059
Pb       3.84948      3.87193      0.08400         0.007012     -0.105493      0.032275
Pb       3.63527      0.12189      4.35052         0.353895      0.146512     -0.270551
Pb       3.90640     15.19892      0.01119        -0.518753     -0.053861      0.155887
Pb      15.10376      3.91196      4.15445         0.613390     -0.203678      0.820471
Pb       0.03677      3.68833     16.97056         0.238651      0.352446     -0.302215
Pb      15.19758      0.18905      4.30587        -0.236457     -0.255909      0.119849
Pb       0.04683     15.16780     16.86537         0.466007     -0.339932      0.020548
Pb       3.87166      3.72704      8.44727        -0.441194      0.627222      0.895427
Pb       3.77675     15.04479      8.59851         0.250349      0.533704      0.467392
Pb      15.17064      3.77276      8.53557         0.094753      0.133623      0.489086
Pb      15.10089     15.09095      8.66678        -0.282083      0.355247      0.039364
Pb       3.80129      3.84040     12.71283        -0.252761     -0.622611     -0.405831
Pb       3.83175     15.13692     12.70716        -0.361634     -0.001898      0.066982
Pb       0.03704      3.61951     12.73548        -0.176035      0.124159     -0.006078
Pb       0.06354     15.16883     12.76412         0.294545     -0.294651      0.113131
Pb       3.62738      7.74013      4.29151         0.303552     -0.741697      0.311725
Pb       3.93832      7.62008      0.04659        -0.293809     -0.060258      0.034534
Pb      15.14769      7.77709      4.19315        -0.335644     -0.709679      0.589431
Pb       0.13482      7.64900     16.89026        -0.150258     -0.276103      0.081664
Pb       3.73139      7.58534      8.41213        -0.010195     -0.195097     -0.013066
Pb      15.08333      7.49636      8.50232         0.397284      0.221543      0.610432
Pb       3.85415      7.52046     12.60285        -1.066209      0.339831      0.512959
Pb      15.13430      7.40755     12.64973         0.038003      0.708988      0.532594
Pb       3.56655     11.48733      4.29238         0.189526     -0.304053     -0.130649
Pb       3.95406     11.38686      0.21584        -0.446176      0.058952     -0.341624
Pb      15.10213     11.51549      4.18856        -0.214812     -0.449590      0.517940
Pb       0.11359     11.41954     16.94719        -0.124582      0.082665      0.150583
Pb       3.75643     11.37083      8.49584         0.141590     -0.476996     -0.109776
Pb      15.00163     11.38735      8.51975         0.263169     -0.088248      0.322650
Pb       3.77041     11.28764     12.73679         0.117097      0.560830     -0.037758
Pb       0.01094     11.20229     12.73930        -0.479018      0.439216      0.610750
Pb       7.57423      3.75650      4.10868        -0.022603      0.164471      0.581640
Pb       7.55443      3.76847     16.97674         0.057607      0.231675      0.838879
Pb       7.60329      0.04335      4.19711        -0.118880     -0.310278      0.954154
Pb       7.61605     15.16437      0.02404        -0.317073     -0.015736     -0.223341
Pb       7.67433      3.87923      8.30631        -0.214041     -0.740408      0.230067
Pb       7.58493     15.09690      8.31862        -0.223798      0.295518      0.751127
Pb       7.49705      3.80682     12.73421         0.453877     -0.519190     -0.316332
Pb       7.60507      0.05213     12.72596         0.063009     -0.393106     -0.049981
Pb       7.64806      7.67986      4.35734         0.023924     -0.268537     -0.315483
Pb       7.42893      7.67616     16.97899         0.632990     -0.830005      0.545435
Pb       7.59520      7.59130      8.39556        -0.352303      0.094812     -0.062906
Pb       7.54630      7.48900     12.70464         0.777442      0.596848      0.379157
Pb       7.56018     11.39235      4.20535         0.381056      0.009655      0.146133
Pb       7.68783     11.39328      0.01248        -0.597485      0.034877     -0.102280
Pb       7.51153     11.47855      8.39637         0.034565     -0.081729      0.428184
Pb       7.44541     11.22415     12.68664         0.636268      0.653369      0.375641
Pb      11.44279      3.65545      4.13126        -0.101886      0.541081      0.089419
Pb      11.43943      3.71745     16.99885        -0.355481     -0.028410      0.271682
Pb      11.43960      0.02316      4.16344        -0.172558     -0.270569      0.374358
Pb      11.46908     15.10591     16.90473        -0.382853      0.183402     -0.422485
Pb      11.34419      3.80678      8.44622         0.491203     -0.357915      0.628478
Pb      11.25924     15.16917      8.41785         0.346530     -0.072033      0.610012
Pb      11.40085      3.79483     12.80214        -0.000524     -0.265542     -0.227258
Pb      11.39649     15.09862     12.80889        -0.122647      0.136414     -0.172009
Pb      11.41007      7.77367      4.13650         0.246338     -0.809271      0.249638
Pb      11.29754      7.51743     16.93635         0.308950      0.236401      0.413054
Pb      11.28167      7.50227      8.42383         0.442598      0.694420      0.920137
Pb      11.29107      7.40535     12.74629         0.239288      1.015660      0.173290
Pb      11.43025     11.40787      4.12718        -0.413273      0.056709      0.514056
Pb      11.35904     11.45036      0.00818         0.107420     -0.305367     -0.830639
Pb      11.29279     11.47527      8.50007        -0.014452     -0.245519      0.778960
Pb      11.41592     11.37048     12.82997         0.059850     -0.502541     -0.072332
Ti       1.88421      1.90737      2.20665         0.704552     -0.434953     -0.269327
Ti       2.03002      1.81761     14.96364        -0.571779     -0.333573     -0.452158
Ti       1.67664     13.37099      2.41632         1.234923     -0.001660     -1.356494
Ti       2.02787     13.22804     14.99960        -2.245052      0.498847     -0.401017
Ti      13.35180      1.80280      2.14657        -0.372169      0.383936      0.244073
Ti      13.33588      1.90185     15.03561         0.151099     -0.887699     -0.360355
Ti      13.15339     13.29660      2.16760         0.793634     -0.199258     -0.039610
Ti      13.31944     13.19363     15.00860         0.111216      0.180243     -0.416735
Ti       1.89149      1.86927      6.70442         0.231636      0.434687     -1.206883
Ti       1.79567     13.31635      6.58221        -0.494076     -0.719199     -0.295260
Ti      13.33782      1.90655      6.57421         0.134215     -0.073579     -0.185787
Ti      13.24173     13.29946      6.56611        -0.821152      0.225815     -0.492340
Ti       1.95996      1.84430     10.74038        -0.431337     -0.391377      1.212274
Ti       1.84821     13.19550     10.72034         0.123862      1.762788      0.385405
Ti      13.24255      1.79793     10.80605         0.644592      0.800691     -0.730540
Ti      13.22604     13.28238     10.85873         0.020553     -0.844565     -1.139961
Ti       1.84190      5.72376      2.25138         1.368914     -0.467234     -0.037618
Ti       1.90282      5.66506     15.00237        -0.386901     -0.046327     -0.529343
Ti      13.31152      5.66520      2.18123         0.224454      0.867217     -0.485932
Ti      13.31130      5.71293     15.05040         1.403069     -0.528915     -1.027962
Ti       1.86073      5.64874      6.53203         0.207209      0.495136      0.189333
Ti      13.24285      5.69504      6.60816         1.105302      0.502753     -0.293055
Ti       1.83899      5.64978     10.79455         0.625157      0.024825     -0.765026
Ti      13.28284      5.60132     10.81481        -0.086376      0.153804     -1.360811
Ti       1.84496      9.50082      2.25227         0.807699      0.642657     -0.392076
Ti       1.99500      9.53044     14.97224        -0.955707     -0.233261      0.943465
Ti      13.34615      9.51683      2.09078        -0.325915     -0.609710     -1.058973
Ti      13.38455      9.43333     15.00610        -0.601572      1.668076     -1.833993
Ti       1.83964      9.49929      6.57932         0.060980     -0.807731     -0.537959
Ti      13.20904      9.50372      6.57857         0.282888     -0.352508      0.383399
Ti       1.84653      9.50411     10.64581         0.460553     -1.121645     -0.188324
Ti      13.25538      9.46318     10.67754        -1.038622     -0.329058      1.540645
Ti       5.66122      1.80983      2.36293        -0.240085      1.888852     -0.259140
Ti       5.73369      1.87201     14.96284        -0.635738     -0.510054      0.051555
Ti       5.57791     13.30406      2.37859         0.020687      0.149381     -1.128148
Ti       5.65341     13.23255     14.98249         0.743894     -0.061314     -0.847125
Ti       5.67060      1.88358      6.59070         0.825075     -1.081562     -0.754684
Ti       5.55522     13.27032      6.42674         1.289323      0.148460     -0.176669
Ti       5.75722      1.79302     10.71296        -0.679005      0.144941     -0.025136
Ti       5.70093     13.19193     10.75994        -0.493176      0.665359      0.336055
Ti       5.71650      5.75826      2.41332        -0.206817     -1.216131     -1.141549
Ti       5.65642      5.62037     14.98837         0.378538      0.711737      1.838613
Ti       5.66818      5.62046      6.40254         0.230700      1.642263     -0.839055
Ti       5.74432      5.68972     10.57840        -1.148309     -1.421499      0.594093
Ti       5.67955      9.50572      2.37468         0.216603     -0.599227     -1.094997
Ti       5.72535      9.49967     15.04066        -1.463755      0.011934     -0.227430
Ti       5.68151      9.46660      6.45429        -0.377883      0.010417     -0.336773
Ti       5.64684      9.39081     10.71867        -0.397744      1.262515      0.119662
Ti       9.46256      1.81925      2.22816         0.663341      1.474482     -1.037645
Ti       9.47423      1.87901     14.99687         0.405896      0.007000      0.050835
Ti       9.41376     13.29059      2.21371         0.167271     -0.005717      0.290493
Ti       9.40812     13.28135     14.94589         0.558784     -0.731947      0.082307
Ti       9.55396      1.91250      6.44763        -1.107430      0.127976      0.117916
Ti       9.45944     13.28927      6.40094        -0.204697     -0.248015     -0.835667
Ti       9.52248      1.89504     10.76005         0.135000     -0.604229      0.112202
Ti       9.42163     13.25943     10.76620         0.553213      0.014956     -0.735161
Ti       9.51812      5.65345      2.29744         0.394709     -0.079616      0.081557
Ti       9.52289      5.63021     15.09010        -0.932071     -0.075298      0.753953
Ti       9.54669      5.71974      6.38183        -1.213281     -0.371765     -1.696006
Ti       9.46786      5.62309     10.65342         0.929652      0.455221      1.973613
Ti       9.52849      9.47965      2.16522        -0.332392      0.144287      0.280050
Ti       9.55170      9.44585     15.05429         0.054698     -0.012586     -0.897982
Ti       9.44749      9.54055      6.58574         0.007957     -0.130238     -1.568227
Ti       9.48176      9.43604     10.79452         0.355271      0.515139     -0.021930
O       2.07441      1.74884      0.47473        -0.425003      0.412264     -0.798148
O       1.99885      1.68229     13.17006        -0.299930      0.833874      0.227350
O       1.74752     13.41918      0.66631         0.226793     -0.336782     -0.726826
O       1.82429     13.30375     13.24950         0.498619     -0.419927     -0.427270
O      13.38749      1.70610      0.39792        -0.417459      0.454729     -0.401650
O      13.36200      1.85139     13.25705        -0.214230      0.200703     -0.002294
O      13.11830     13.19473      0.39003         0.216138      0.665291     -0.234625
O      13.29685     13.19416     13.21564        -0.161104      0.210519     -0.777391
O       1.94376      1.88851      4.84912        -0.015230     -0.323306      0.491253
O       1.66852     13.22105      4.73583         0.691705      0.475395      0.725545
O      13.35182      1.87431      4.77860        -0.109330      0.257323     -0.226972
O      13.14069     13.25809      4.80784         0.308400     -0.012922     -0.725416
O       1.84716      1.83498      9.00223         0.014330     -0.022564     -1.187718
O       1.72060     13.19236      8.89686         0.546914      0.234752      0.460359
O      13.32021      1.86458      9.00575        -0.302743     -0.103621     -0.363808
O      13.25958     13.33442      9.01078        -0.020921     -0.094353     -0.105676
O       1.90994      5.69375      0.48417        -0.081597      0.034854     -0.331931
O       1.90776      5.61349     13.20826         0.127550      0.016551     -0.094332
O      13.26687      5.64336      0.40317         0.205066      0.301354      0.205585
O      13.38931      5.63980     13.19745        -0.170420      0.102313      0.680353
O       1.93877      5.64601      4.77066        -0.315397     -0.039277     -0.900432
O      13.35497      5.83238      4.88679        -0.019433     -0.459237     -1.208080
O       1.74974      5.68363      9.03761         0.416640     -0.207206     -0.664286
O      13.30219      5.67041      8.97016        -0.200313     -0.491424      0.259627
O       1.86903      9.55023      0.47504         0.144029     -0.335146      0.169461
O       2.02081      9.69978     13.25663        -0.420865     -0.365459     -1.828702
O      13.47920      9.49644      0.30077        -0.677435     -0.103009      0.705926
O      13.36609      9.52413     13.13112         0.008463     -0.249740      0.750825
O       1.78118      9.40685      4.75055         0.305448      0.505297     -0.217398
O      13.21964      9.43880      4.80025         0.246201      0.323379     -0.155625
O       2.00219      9.43228      8.86888        -0.188627      0.348459      0.262904
O      13.15727      9.56846      8.94080         0.058101     -0.385172     -0.478631
O       5.73189      1.89132      0.59681        -0.198674     -0.364637     -0.685786
O       5.70272      1.90935     13.21154         0.178050      0.154286     -0.626811
O       5.64900     13.34905      0.51320         0.103136     -0.024126      1.077177
O       5.64444     13.05744     13.16874         0.380552      0.498175      1.226762
O       5.71264      1.80524      4.81338        -0.386593      0.382808     -0.475934
O       5.62251     13.23314      4.64963        -0.161864     -0.191940     -0.173177
O       5.76130      1.74150      8.95730         0.083793      0.140569     -0.671859
O       5.75127     13.27445      8.98426        -0.545599     -0.022049     -0.767961
O       5.75657      5.60278      0.56133        -0.544597      0.413214      0.057320
O       5.43935      5.68692     13.25903         0.955835     -0.094784     -0.993264
O       5.68648      5.73542      4.59687         0.259907     -0.204861      0.725303
O       5.79369      5.62135      8.83639         0.012772      0.282544     -0.158641
O       5.63552      9.41687      0.50051        -0.158693      0.115782      0.655949
O       5.46403      9.59245     13.25425         0.976925     -0.602757     -0.098141
O       5.85807      9.44695      4.66858        -0.494019      0.245677     -0.747298
O       5.58902      9.37198      9.00016         0.418269      0.263582     -1.770450
O       9.32995      1.96643      0.47478         0.505158     -0.306057     -0.953424
O       9.45238      1.91878     13.22123         0.118386     -0.033878      0.049363
O       9.40243     13.14677      0.42928         0.327286      0.405430     -0.316444
O       9.46380     13.31240     13.20073        -0.236474      0.126566     -1.114886
O       9.57262      1.86826      4.69752         0.019092      0.008033     -0.709297
O       9.47533     13.33806      4.60409         0.090860     -0.208666      0.536613
O       9.66417      1.86036      8.98113        -0.465569      0.309657     -0.427040
O       9.51996     13.24623      8.91396        -0.371747      0.214646      0.488720
O       9.62545      5.57189      0.52547         0.184825      0.164940     -0.476682
O       9.45148      5.60420     13.35585        -0.029337      0.282230     -1.444808
O       9.56188      5.83389      4.59225         0.045752     -0.220983      0.137613
O       9.59671      5.55063      8.94279        -0.569288      0.242834     -1.465117
O       9.61049      9.48946      0.39230        -0.315198      0.109144     -0.185916
O       9.48766      9.29985     13.27763        -0.467445      0.066390     -0.317637
O       9.47783      9.49760      4.75023        -0.089119     -0.230045      0.232915
O       9.46166      9.56941      9.01728        -0.227323     -0.456107     -0.402194
O       3.77112      1.90237      2.68453         0.057271     -0.503633      0.260746
O       3.85625      1.72478     15.33426         0.737227      0.402484      0.268793
O       3.69607     13.29739      2.60899         0.601243      0.141741      0.527405
O       3.80213     13.38850     15.41066         1.623475     -0.270866      0.179511
O       0.01982      1.81993      2.47518        -0.758922      0.133262      0.658118
O       0.09439      1.89478     15.36484        -0.532545     -0.093213     -0.027896
O      15.00771     13.26083      2.65543         0.526941      0.310065      0.169969
O       0.02170     13.22143     15.35633        -0.109750     -0.047617      0.172461
O       3.82059      1.81743      7.18939         0.030179     -0.138796     -1.177456
O       3.73497     13.27536      6.97827        -0.253984     -0.119777     -0.651793
O       0.06266      1.83213      6.86356        -1.599509     -0.146465      0.373687
O      15.06390     13.28665      6.84798         1.685162     -0.123183      0.294915
O       3.80876      1.79989     11.05568         0.881931      0.351802     -0.032711
O       3.81956     13.31800     11.15240        -0.782624     -0.580085     -0.848114
O      15.15687      1.77888     11.10313         0.672452      0.179121      0.254296
O      15.14805     13.30066     11.09924         0.630127     -0.152306     -0.131643
O       3.84191      5.63761      2.67671        -1.630688      0.385520     -0.308986
O       3.76615      5.77648     15.45059         0.604583     -0.241501     -0.032489
O       0.05156      5.83779      2.67792        -1.029105     -0.831202     -0.041078
O      15.19413      5.58512     15.45202         1.029031      0.026606     -0.083189
O       3.79432      5.56972      6.83365         0.481092      0.217650      0.204699
O       0.04225      5.81242      6.90028        -0.923752     -0.591941     -0.006498
O       3.76111      5.74808     10.99420         1.111971     -0.673107      0.181881
O      15.17573      5.61873     11.12540         0.302506     -0.719274      0.356285
O       3.77303      9.51494      2.72945        -0.324719      0.304736     -0.154824
O       3.75928      9.43368     15.43708         1.389406     -0.405963      0.369781
O      15.18999      9.61168      2.48630        -0.270735     -0.391637      0.722845
O       0.02358      9.80026     15.21339         0.755490     -0.782794      0.319237
O       3.81175      9.47455      6.81987        -0.254603      0.134930      0.053174
O       0.01814      9.46441      7.00629        -1.507761      0.013944     -0.487271
O       3.71668      9.48530     11.00757         0.319162     -0.036166      0.432386
O      15.14724      9.59421     10.93815         0.466476      0.106618      0.096124
O       7.63024      1.84123      2.57723        -0.885828      0.035158      0.785344
O       7.60049      2.01063     15.27116         0.140613     -0.056142      0.325654
O       7.59026     13.30451      2.62272        -0.421656      0.263625     -0.048267
O       7.56606     13.15230     15.33210        -0.846653     -0.128933      0.310297
O       7.57088      1.82700      6.89500         1.099783      0.563652     -0.088310
O       7.48666     13.27400      6.84021         0.939435     -0.164175     -0.391241
O       7.62487      1.88470     11.18046        -0.029417      0.170801     -0.037649
O       7.56010     13.27159     11.00772         0.579850     -0.050404      0.671499
O       7.67411      5.74344      2.56637        -0.139622     -0.324411      0.425416
O       7.60477      5.60651     15.44170        -0.692698     -0.004567     -0.617824
O       7.63836      5.68884      6.73593        -0.948414     -0.018885      0.370946
O       7.62409      5.76483     11.11853        -1.387594     -0.585385     -0.249378
O       7.58502      9.53843      2.52520         0.983921     -0.235375      0.197031
O       7.54856      9.48583     15.38498         0.805990      0.064864     -0.078796
O       7.54631      9.46715      6.86203         0.282576     -0.373249      0.532393
O       7.51618      9.38055     11.22436         0.484986     -0.273220     -0.208708
O      11.42185      1.95470      2.46823         1.008223     -0.117138      0.396983
O      11.41300      1.82466     15.34614        -0.204340     -0.148113      0.152172
O      11.33911     13.37552      2.58621         0.193733     -0.479846      0.091154
O      11.33392     13.24269     15.16067         0.203807      0.565963      1.005625
O      11.39131      2.02091      6.87133         0.497165     -0.305329     -0.277354
O      11.33068     13.11801      6.81182        -0.575309      0.825502      0.102795
O      11.40412      1.92387     11.21099        -0.553723     -0.179821      0.174334
O      11.32539     13.32113     11.07672         0.038287      0.132083      0.610535
O      11.53335      5.67576      2.60672        -1.022447     -0.290002      0.238858
O      11.51688      5.70000     15.26450        -1.575911      0.227603      0.531501
O      11.32946      5.66488      6.83740         1.318512     -0.079482      0.334116
O      11.38214      5.67405     11.14130        -0.258470     -0.255645     -0.019085
O      11.48207      9.56724      2.51790        -0.971828     -0.339413      0.033020
O      11.42446      9.38487     15.20469        -0.024961     -0.193511      0.728968
O      11.27569      9.48793      6.91046         0.911492     -0.120501     -0.064722
O      11.32820      9.23279     11.22908         0.720085      0.861812     -0.539129
O       1.83559      3.75244      2.52631        -0.008523      1.264019      0.445993
O       2.04833      3.70641     15.27141        -0.156239      0.831617      0.399871
O       1.81380      0.05405      2.65693         0.238938     -0.693590      1.016937
O       1.92261     15.13362     15.28202        -0.396971      0.094809      0.778389
O      13.48367      3.76144      2.54304        -0.599331      0.086549     -0.112666
O      13.36034      3.75850     15.47869        -0.412457     -0.017248     -0.395367
O      13.30536     15.16807      2.65141        -0.226786      0.319482     -0.162189
O      13.29057     15.14505     15.32438         0.091673      0.105675      0.187272
O       1.88489      3.73763      6.96299         0.133700      0.495939      0.147488
O       1.90398     15.15825      6.96322        -0.022158     -0.745869     -0.221780
O      13.46597      3.84322      6.91108        -0.718184     -0.911852     -0.230062
O      13.22526      0.03279      6.84306        -0.198649     -0.472410      0.262530
O       1.95022      3.71697     11.16788        -0.297588      0.356026     -0.061135
O       2.00100     15.16037     11.16716        -0.849375     -0.929799     -0.607118
O      13.30358      3.72034     11.16628         0.019033      0.137039      0.127401
O      13.24382     15.14068     11.08923        -0.183428      0.341551      0.604787
O       1.86307      7.61342      2.54074         0.379057      0.448788      0.342080
O       1.75315      7.60775     15.07565        -0.099956     -0.258586      0.953251
O      13.34504      7.60568      2.55823        -0.089091      0.656002     -0.169617
O      13.48675      7.63480     15.28809         0.009846     -1.608857      0.245224
O       1.96218      7.56668      6.79501         0.220367     -0.138102      0.354756
O      13.22435      7.60811      6.99939        -0.201276      0.297690     -0.126305
O       1.80531      7.57689     11.04350         0.047079      0.848576      0.392141
O      13.46008      7.47569     10.92484        -0.530138      1.413055      0.633912
O       1.83850     11.44105      2.68776         0.001902     -0.640115      0.160404
O       2.07714     11.40049     15.47544        -0.128131      0.451146      0.189292
O      13.22823     11.40745      2.46198        -0.019375      0.033116      0.547863
O      13.20562     11.35982     15.28369        -0.316166      0.230614      0.492508
O       1.88262     11.34716      6.84505         0.087299      1.332087      0.043812
O      13.20944     11.35870      6.99339         0.399112      0.201328     -0.557104
O       1.93140     11.43142     11.13718        -0.232833     -1.263994     -0.541519
O      13.06740     11.37405     11.01736         0.446952     -0.529066      0.215242
O       5.66133      3.76644      2.69631         0.602837     -0.381732      0.145067
O       5.66537      3.76460     15.40614        -0.542778      0.325362     -0.298641
O       5.74703      0.00790      2.81135        -0.728581     -1.002898     -0.537999
O       5.83664     15.16435     15.30662         0.037864     -0.224048      0.083637
O       5.74716      3.79499      6.74182        -0.157811     -0.663744      0.549670
O       5.77166     15.14517      6.67856        -0.890117     -0.363877      0.806616
O       5.70766      3.71165     10.97516         0.014579      1.637761      0.411043
O       5.69517     15.13130     11.13378         0.448012      0.169718      0.142344
O       5.68577      7.59124      2.53850        -0.001564      0.695937      0.457569
O       5.73875      7.59780     15.37437        -0.298043     -0.888333     -0.078757
O       5.68707      7.58417      6.67125         0.073369     -0.827717      0.774849
O       5.57705      7.54612     10.94260         0.649672     -1.009739      0.825694
O       5.69696     11.38940      2.49015        -0.231919      0.547599      0.579123
O       5.62045     11.32667     15.52197        -0.082714      0.987221     -0.240031
O       5.68225     11.34539      6.76153        -0.217357      0.755537      0.489816
O       5.69204     11.30251     11.03167         0.047757      0.087201      0.072502
O       9.53720      3.70634      2.67128        -0.020621      1.552731      0.173789
O       9.67170      3.76596     15.41301        -0.360797     -0.370458     -0.075104
O       9.64438      0.02437      2.35686        -0.560605     -1.511444      0.789502
O       9.31903     15.13824     15.34374         0.514068      0.994381      0.167606
O       9.44501      3.83805      6.69276         0.139162     -0.892376      0.425559
O       9.49500     15.17852      6.64457         0.309784      0.062329      0.855436
O       9.50106      3.79525     11.11722        -0.291847      0.076259      0.186173
O       9.48941      0.02111     11.08014        -0.095377     -0.545874      0.314342
O       9.59784      7.63628      2.44669         0.071014     -0.203570      0.335707
O       9.44393      7.48673     15.42346         0.292415      0.837175      0.356976
O       9.39947      7.51923      6.87185         0.413097      1.447980      0.251824
O       9.48581      7.53398     11.01951        -0.547560     -0.629783      0.372581
O       9.53106     11.42690      2.59067        -0.006691     -0.730094     -0.072397
O       9.51350     11.33799     15.31194        -0.112645     -0.174910      0.235828
O       9.31665     11.39795      6.77093         0.337003      0.072957      0.180277
O       9.47628     11.38241     11.14501        -0.046976     -0.647884      0.100417
