  # total energy = -7878.59105945 
CRSYTAL
PRIMVEC
    15.6000000000000000    0.0000000000000000    0.0000000000000000
     0.0000000000000000   15.6000000000000000    0.0000000000000000
     0.0000000000000000    0.0000000000000000    17.640000000000000
PRESSURE
-3.18226 -3.08826 -6.60877 -0.070696 0.254297 0.013332
PRIMCOORD
320 1
Pb       3.95758      3.87901      4.31813        -0.904074      0.186983      0.966136
Pb       3.96282      3.91319     17.55454        -0.189040     -0.586530      0.681511
Pb       3.77424     15.48082      4.34358         0.353483      0.688481      0.870221
Pb       3.84110      0.02231      0.00706         0.430165     -0.189554      0.172840
Pb      15.51829      3.84602      4.30733         0.129299     -0.062851      0.706708
Pb       0.05642      3.86967     17.52935        -0.509821      0.026425      0.553039
Pb       0.00887     15.57497      4.32436        -0.265102      0.418691      0.385834
Pb      15.51512     15.57018     17.63738         0.212150      0.219621      0.688609
Pb       3.84407      3.95209      8.71501         0.063686      0.099681      0.946147
Pb       3.88471     15.59944      8.76603        -0.114897     -0.025774      0.145839
Pb      15.58697      3.92261      8.81318         0.295092      0.037369      0.035179
Pb      15.51472      0.06674      8.68637         0.148239      0.002618      0.547312
Pb       3.92078      3.88525     13.18711        -0.075948     -0.323307      0.766150
Pb       3.95337      0.05703     13.15292         0.159909     -0.198601      0.606978
Pb       0.04051      3.95892     13.15560        -0.480405     -0.572365      0.863049
Pb      15.50837     15.53257     13.19281        -0.034119      0.103000      0.888836
Pb       3.95850      7.75056      4.32656        -0.397555      0.177422      0.629139
Pb       3.96396      7.72621     17.51060        -0.298918      0.449475      1.334371
Pb      15.59745      7.59505      4.27507        -0.165127      1.028471      1.200680
Pb       0.04872      7.73525     17.49631        -0.531630      0.114408      0.924750
Pb       3.81928      7.73783      8.72754         0.147903      0.290017      0.549109
Pb      15.57583      7.82930      8.72095        -0.260245     -0.013185      0.267166
Pb       3.93140      7.76377     13.15332        -0.516771      0.477421      0.540471
Pb       0.02706      7.72368     13.13260         0.033937      0.401765      0.400797
Pb       3.89451     11.62588      4.30005         0.079427     -0.147908      0.202890
Pb       3.83299     11.66917     17.54164        -0.032112      0.431151      0.519062
Pb       0.05960     11.77618      4.33270        -0.339867     -0.675087      0.315239
Pb       0.02176     11.69312     17.51983         0.313038     -0.389252      0.440275
Pb       3.84318     11.79187      8.84442        -0.235537     -0.452575     -0.087191
Pb      15.58870     11.66606      8.69961        -0.372524     -0.328200      0.911512
Pb       3.88995     11.67641     13.15268        -0.180690     -0.117969      0.875477
Pb      15.54476     11.78356     13.16428         0.185078     -0.419791      0.873434
Pb       7.72864      3.79000      4.28198         0.275722     -0.690387      1.147244
Pb       7.81796      3.92198     17.61302        -0.141835     -0.503097      0.998712
Pb       7.68937     15.53456      4.37626         0.247722      0.494512      0.421680
Pb       7.73533      0.00627     17.53537        -0.307942     -0.282570      0.486019
Pb       7.70294      3.91835      8.78712         0.204101      0.025333      0.472924
Pb       7.72404      0.07212      8.76012         0.209653     -0.327000      0.455792
Pb       7.72685      3.87814     13.25956         0.234431     -0.209345     -0.138376
Pb       7.81202      0.06981     13.08608        -0.205138     -0.022963      0.418109
Pb       7.77501      7.66326      4.30728         0.082706      0.471548      0.967315
Pb       7.77470      7.71340     17.49063         0.135617      0.868749      1.365020
Pb       7.74295      7.81314      8.77388         0.180987      0.251188      0.700094
Pb       7.84454      7.71148     13.19704        -0.128533      0.341667      0.200845
Pb       7.72787     11.53342      4.26837        -0.052476      0.565224      0.984149
Pb       7.80174     11.63015     17.41055        -0.446134      0.190135      0.944666
Pb       7.76168     11.71149      8.60484         0.540893     -0.399051      1.228522
Pb       7.72731     11.73404     13.08616         0.559380     -0.238502      1.387161
Pb      11.75668      3.80021      4.23025         0.344693     -0.019465      0.928395
Pb      11.59358      3.82265     17.59066         0.472671     -0.202301      0.576604
Pb      11.69853     15.56699      4.26964         0.548742     -0.013687      1.032919
Pb      11.72850     15.58584     17.60332        -0.431444     -0.293268      0.684810
Pb      11.70685      3.88212      8.68861        -0.249941      0.526023      1.157869
Pb      11.61032      0.02054      8.73140         0.990496     -0.351320      1.056973
Pb      11.69307      3.86171     13.12525         0.463545      0.087836      0.133165
Pb      11.63172      0.05822     13.15416         0.491147      0.007587      0.700040
Pb      11.62617      7.79209      4.36659         0.528859     -0.207333      0.524501
Pb      11.68801      7.77043     17.59807         0.443927      0.286766      0.636629
Pb      11.70601      7.80853      8.73843         0.271332     -0.193225      0.612389
Pb      11.65323      7.81459     13.08242         0.213071     -0.106607      0.524301
Pb      11.66523     11.51928      4.37772         0.768052      0.462989      0.631947
Pb      11.58176     11.73494     17.60624         0.129294     -0.054396      0.588144
Pb      11.60053     11.78735      8.89496         0.205197     -0.300935     -0.103216
Pb      11.66686     11.70174     13.26848         0.071787     -0.112648      0.378233
Ti       1.96014      1.97529      2.40896        -1.040240     -0.222290     -1.955486
Ti       1.98764      1.95364     15.65549        -0.266481     -0.527957     -1.132080
Ti       2.00886     13.63861      2.46573        -0.649903     -0.201160     -1.788579
Ti       1.89728     13.76857     15.64452        -0.115022     -1.235512     -1.089906
Ti      13.68847      1.90882      2.36161        -0.019527     -0.193152     -1.437489
Ti      13.61971      1.86096     15.63730         0.058681      0.511332     -1.026925
Ti      13.67946     13.58001      2.47099        -0.002905      0.379368     -1.888838
Ti      13.57980     13.54433     15.81020         0.299216      0.213064     -2.628567
Ti       2.01507      1.95807      6.87358        -1.122134      0.978996     -2.351159
Ti       1.96977     13.63468      6.85228        -0.416920     -0.066463     -1.160809
Ti      13.69483      2.05620      6.89851         0.044659     -1.354445     -1.971980
Ti      13.73080     13.62650      6.83268        -1.219329     -0.245745     -0.700963
Ti       1.91960      1.91683     11.29788         0.057100      0.148738     -1.816413
Ti       1.97004     13.73131     11.29660        -0.081946     -1.158565     -1.444850
Ti      13.70513      1.89459     11.22254        -0.816773      0.867669     -1.502939
Ti      13.65557     13.59640     11.26465        -0.682011     -0.176580     -1.191141
Ti       1.86504      5.82749      2.40588         0.419808     -0.204379     -1.149556
Ti       1.97713      5.84790     15.72110        -1.094027     -0.163339     -1.994959
Ti      13.54686      5.92629      2.41362         1.443839     -0.674900     -1.649477
Ti      13.50506      5.81672     15.68020         1.444033     -0.892372     -1.350389
Ti       1.95110      5.86723      6.85070        -0.485016     -0.901791     -2.252206
Ti      13.60334      5.80996      6.83408         0.482019      0.852655     -2.050143
Ti       1.95938      5.76369     11.29714         0.249891      1.282472     -1.471715
Ti      13.65389      5.81845     11.25860        -1.049210     -0.129776     -1.150015
Ti       1.89746      9.67882      2.41375         0.176229      0.427585     -1.508392
Ti       2.00270      9.69614     15.68915        -0.574685      1.131315     -1.589053
Ti      13.67457      9.74230      2.34429         0.577339     -0.563248     -0.357760
Ti      13.63986      9.62070     15.56563         0.602600      0.651820     -0.587557
Ti       1.94913      9.77639      6.76126        -0.530171     -0.902561     -0.787126
Ti      13.57396      9.76532      6.81702         1.151980     -0.189987     -2.333222
Ti       1.94002      9.77915     11.22275        -0.444360      0.002104     -1.093119
Ti      13.64536      9.73696     11.32223        -0.201060     -0.144686     -2.456925
Ti       5.75297      1.93887      2.43606         0.900550     -1.335785     -1.905583
Ti       5.86297      1.98121     15.64748         0.091714     -1.231615     -1.850814
Ti       5.88025     13.68140      2.48354         0.076981     -0.459491     -2.941698
Ti       5.76148     13.66240     15.57911         0.125478      0.249632     -0.719234
Ti       5.82295      1.96002      6.84628         0.507975      0.284805     -1.751835
Ti       5.86574     13.64328      6.80085        -0.284349     -0.237175     -1.304123
Ti       5.80419      1.97300     11.18734         0.126741      0.007563     -0.467278
Ti       5.92396     13.57748     11.23395        -0.707663      1.899094     -1.254826
Ti       5.81078      5.86126      2.47032        -0.271297     -0.114756     -1.743133
Ti       5.87837      5.81713     15.65297        -0.394775     -0.202414     -1.544149
Ti       5.87094      5.86898      6.91993        -0.565909     -0.203652     -2.399477
Ti       5.81863      5.81222     11.37002         0.027865      0.016896     -2.202008
Ti       5.84393      9.76296      2.32481        -0.066552      0.039240     -0.315125
Ti       5.79964      9.71195     15.68067         0.414339      1.384005     -1.823387
Ti       5.86198      9.74775      6.85173        -0.784134     -0.608096     -1.699081
Ti       5.85540      9.71267     11.29962         0.052460     -0.607545     -1.955294
Ti       9.73792      1.86069      2.43451        -0.538982      0.198843     -2.063355
Ti       9.71812      1.95776     15.68498        -0.472885     -1.208201     -1.185393
Ti       9.79711     13.63101      2.57338        -0.060795     -0.688588     -2.167768
Ti       9.66146     13.62665     15.67735         0.173512      0.309423     -1.714887
Ti       9.74702      1.94719      6.93298        -0.581923      0.164936     -2.871898
Ti       9.77598     13.65529      6.83666         0.817230     -0.248187     -1.128563
Ti       9.73861      2.04042     11.26095         0.529352     -1.108999     -0.612250
Ti       9.84740     13.61392     11.37315        -0.473026      0.301551     -1.785193
Ti       9.67262      5.73761      2.53010         0.525353      0.438510     -1.992251
Ti       9.73152      5.80187     15.71619        -0.418706      0.626127     -3.033090
Ti       9.72665      5.81344      6.84068         0.064944      0.436767     -1.706498
Ti       9.72165      5.84482     11.27297         0.254767      0.086567     -1.251588
Ti       9.77809      9.70655      2.45626        -0.679390      0.293249     -2.029113
Ti       9.79963      9.65378     15.61780        -0.719006      1.145180     -1.824203
Ti       9.79039      9.68180      6.82130         0.099819      0.263402     -0.168387
Ti       9.68048      9.73824     11.31356         0.672612      0.466914     -2.172178
O       1.94031      1.90514      0.59203         0.377320      0.259762      0.990850
O       2.03118      1.83997     13.82851        -0.196926      0.330430      1.621319
O       1.97626     13.58536      0.69464         0.015004      0.221654      0.774419
O       1.69928     13.77597     13.84792         0.585107     -0.051950      1.043456
O      13.66958      1.78681      0.54403        -0.217493      0.389870      1.257007
O      13.45835      1.84358     13.80419         0.622451      0.458414      2.316563
O      13.63959     13.66717      0.65180         0.197260     -0.099924      0.555799
O      13.59416     13.61656     13.95240         0.080732     -0.233727      1.693640
O       2.04880      2.10945      5.08093        -0.192769     -0.480883      0.724270
O       2.01324     13.44992      5.05961        -0.130748      0.396466      0.557156
O      13.67167      2.06531      5.07295        -0.075072     -0.111738      1.286500
O      13.67439     13.49651      5.06757         0.255795      0.514167      0.360180
O       1.91320      1.98538      9.46241         0.018090     -0.376269      1.516440
O       1.93102     13.67468      9.45548         0.488459      0.034364      1.294577
O      13.78363      1.88689      9.39489        -0.088673      0.227408      0.822129
O      13.66749     13.49128      9.47732        -0.225966      0.485409      1.252385
O       1.82963      5.92597      0.58949         0.417043     -0.464968      0.879347
O       1.89616      5.90284     13.90750         0.198225     -0.233337      0.981706
O      13.79922      6.00695      0.60522        -1.016933     -0.361649      1.027273
O      13.58090      5.75969     13.89534        -0.126635     -0.029940      0.758072
O       2.04337      5.75543      5.04921        -0.338974      0.494043      0.562215
O      13.59416      5.66127      5.01521         0.123452      0.403880      1.133611
O       1.90959      5.87422      9.52472         0.183767     -0.387141      0.585928
O      13.60306      5.80839      9.49134         0.202940      0.157592      0.229181
O       2.00848      9.81010      0.61775        -0.151269     -0.410214      0.939799
O       2.18111      9.55636     13.91729        -0.528348      0.338767      0.614273
O      13.68408      9.50649      0.58320        -0.466138      0.431645      0.778046
O      13.55871      9.60855     13.75353         0.399318      0.246699      1.535412
O       1.80284      9.58184      4.96026         0.452666      0.805966      1.366098
O      13.60824      9.71496      4.93336        -0.210769      0.213259      2.117282
O       1.91722      9.90085      9.40324         0.346269     -0.375832      1.836560
O      13.74043      9.76871      9.47308        -0.461043     -0.149004      1.571698
O       5.86834      1.77051      0.60897        -0.462824      0.411444      1.580477
O       5.87337      2.05630     13.77404         0.088214     -0.275469      1.848846
O       5.91626     13.82508      0.66870        -0.209573     -0.148042      1.409208
O       5.80713     13.66364     13.78787        -0.110666     -0.085867      0.399783
O       5.92047      1.86554      5.01022        -0.453658      0.654374      1.248185
O       5.76223     13.59171      5.02237         0.257826      0.248722      1.012182
O       5.78432      2.07139      9.37972         0.239484     -0.490426      0.880003
O       5.85190     13.76953      9.40592        -0.139179     -0.470534      0.870595
O       5.84717      5.83312      0.67024         0.020587     -0.004596      0.817491
O       5.78187      5.77889     13.83457         0.509717      0.046375      1.617186
O       5.75721      5.79361      5.07885         0.430550      0.150084      1.026752
O       5.71152      5.68815      9.58617         0.366045      0.544311      0.023386
O       5.88325      9.76577      0.57142        -0.008951     -0.367888      0.284790
O       5.77450      9.78103     13.87369        -0.131031     -0.091396      1.001902
O       5.88526      9.69629      5.06186        -0.220822     -0.037360      0.865234
O       5.86221      9.71061      9.48588        -0.031554      0.242846      0.959805
O       9.69502      1.91270      0.60718         0.325535      0.120515      1.159429
O       9.64061      1.94878     13.87867         0.246804      0.165994      1.095621
O       9.87360     13.59118      0.76659        -0.436088     -0.275742      1.257125
O       9.75068     13.50257     13.89141        -0.164696      0.466190      0.457740
O       9.68538      1.88113      5.08566         0.274624     -0.041219      1.787642
O       9.87424     13.76208      5.05493        -0.382789     -0.240358      0.752916
O       9.69044      1.96403      9.52078        -0.039638      0.283637     -0.859718
O       9.84792     13.52702      9.57177        -0.017775      0.046654      0.906438
O       9.63197      5.73875      0.70218         0.219535      0.044828      1.093562
O       9.63179      5.86853     13.86201         0.144907     -0.010920      1.627085
O       9.61946      5.93320      5.02181         0.466464     -0.569985      0.709669
O       9.83181      5.79406      9.51289        -0.377940      0.044092      0.450939
O       9.75318      9.93026      0.63974         0.171720     -0.721297      1.255860
O       9.65222      9.77420     13.78972         0.507257     -0.629243      2.057988
O       9.90715      9.68159      5.04547        -0.402625     -0.142795      0.945036
O       9.64406      9.94523      9.47855         0.078724     -0.694033      1.029127
O       3.81200      1.91937      2.72985         1.370408      0.184638      0.264118
O       3.99365      1.90410     16.03871        -0.840504      0.191473      0.086096
O       3.88196     13.68782      2.83320        -0.127436     -0.621866      0.152445
O       3.82908     13.68240     16.02114         0.002007      0.344017     -0.150689
O      15.55761      1.77548      2.68310         0.223965      0.728267      0.594579
O       0.06104      1.95811     16.11626        -0.686107      0.065212     -1.050961
O       0.04305     13.71650      2.87505         0.286975     -0.720221      0.057461
O      15.53967     13.63250     16.10736         0.480556     -0.076202      0.023914
O       3.84906      2.03810      7.28764         1.262251     -0.527690     -0.194186
O       3.85891     13.63118      7.20807         1.119341      0.316389      0.396981
O      15.58376      2.08948      7.26961         0.168367     -0.699125     -0.120996
O       0.00546     13.70904      7.21006         0.443874     -0.428572     -0.193807
O       3.88147      1.88574     11.64065        -0.292121      0.095334     -0.253271
O       3.84436     13.59882     11.65132         0.166934      0.446378     -0.339684
O       0.01916      1.95178     11.70465         0.384830      0.137440     -0.141095
O      15.49796     13.57260     11.68963         0.537562      0.489736     -0.275551
O       3.85495      5.79130      2.84726         0.507320     -0.065701     -0.495774
O       3.92714      5.75984     16.06948         0.714903      0.521373     -0.158375
O      15.59366      5.75747      2.87765        -0.150449      0.577411     -0.442222
O      15.57881      5.70372     15.99745         0.653570      0.558436     -0.051439
O       3.88915      5.79764      7.21536         0.538456      0.486071      0.480517
O      15.58473      5.90997      7.13099        -0.465800     -0.199921      0.456623
O       3.90841      5.77314     11.71653        -1.051457      0.580201      0.002653
O      15.52871      5.72022     11.71312         1.127889      0.551915     -0.252028
O       3.97432      9.55205      2.76910        -0.200329      0.752131      0.037297
O       3.88561      9.70490     16.20757         0.733418     -0.014222     -0.504021
O      15.59322      9.73704      2.63464        -0.228929     -0.371644      0.379159
O       0.02595      9.73952     16.03284        -0.352426     -0.535516     -0.499799
O       3.78315      9.75662      7.08978         1.017600     -0.038112      0.405743
O      15.54248      9.69086      7.32307         0.433239      0.271971     -0.782130
O       3.93604      9.73260     11.68157        -0.562575      0.299436     -0.427735
O      15.56648      9.81875     11.60526         0.866363     -0.343392      0.336304
O       7.76901      1.88436      2.69840         0.245531     -0.242104      0.665984
O       7.76993      1.96537     16.17046         0.562162     -0.025583     -0.714770
O       7.79153     13.60056      2.92403         0.422227      0.137919     -0.144128
O       7.67145     13.56897     15.93367         1.372489      0.317231      0.275325
O       7.77156      2.08155      7.19643         0.106128     -0.875064      0.550283
O       7.82533     13.68432      7.26915        -0.665956      0.187976     -0.487002
O       7.81461      1.99288     11.59974        -0.663289     -0.110229      0.063034
O       7.78136     13.70244     11.63522         0.210070     -0.193824     -0.116834
O       7.74184      5.69013      2.93721         0.204160      0.264161     -0.651062
O       7.80622      5.82144     16.16160        -0.889737      0.275153     -0.697568
O       7.80653      6.00785      7.21903        -0.458756     -0.653125      0.293787
O       7.70986      5.82633     11.58879         0.907601     -0.228885      0.495983
O       7.81937      9.77300      2.87025        -0.335287     -0.643990     -0.541031
O       7.73974      9.70653     15.96485         0.861177      0.167092      0.211262
O       7.72836      9.56528      7.18930         1.313196      0.582939     -0.048832
O       7.80842      9.60902     11.73541        -0.998155      1.117634     -0.183976
O      11.73053      1.81631      2.76224        -0.345441      0.387564     -0.020562
O      11.61126      1.89919     16.14870         0.589959      0.510279     -0.651942
O      11.85053     13.57618      2.77291        -1.968260      0.195971      0.715470
O      11.60699     13.65832     16.17034         0.952723     -0.423933     -0.299689
O      11.68643      1.97132      7.26814        -0.423017      0.052302     -0.151669
O      11.66937     13.67071      7.27686        -0.137495     -0.308690      0.018857
O      11.72744      1.87610     11.52351        -0.561428      0.883561      0.444526
O      11.71400     13.64470     11.82740         0.112626     -0.226885     -0.649022
O      11.75112      5.84189      2.86694        -1.641807     -0.261110     -0.429908
O      11.56849      5.82164     16.05123         1.085880     -0.008425      0.353289
O      11.69788      5.85604      7.23852        -0.397410     -0.757877      0.038472
O      11.66975      5.91508     11.64327         0.010759     -0.532157      0.187736
O      11.65571      9.69233      2.82558         0.176377     -0.064786     -0.323646
O      11.74589      9.64500     15.94591        -0.787626      0.144353      0.139890
O      11.76220      9.79976      7.28114        -1.628977     -0.173220     -0.133518
O      11.64436      9.66452     11.62519         0.165775      0.078544      0.000227
O       1.78550      3.85273      2.74667         0.787354      0.468564     -0.103452
O       2.11492      3.86605     16.04652        -0.590794      0.057109     -0.088925
O       1.95196      0.05413      2.86615         0.062069     -1.139089      0.029300
O       1.86788      0.00554     16.19922         0.523178      0.230390     -0.747458
O      13.63638      3.88664      2.72613        -0.107489     -0.643545     -0.161319
O      13.57676      3.84199     16.12025        -0.250770     -0.287324     -0.260107
O      13.69843     15.57254      2.93266        -0.268726     -0.139078     -0.275737
O      13.69950     15.53767     16.10237        -0.590938      0.888444     -0.414871
O       1.93572      3.95027      7.17419        -0.152943     -0.291889      0.908136
O       1.92474      0.02687      7.06257         0.302674     -0.364676      0.578691
O      13.65316      3.92420      7.26849        -0.182909     -0.156462      0.292275
O      13.62392     15.58709      7.29709         0.151948      0.274937     -0.489125
O       2.04663      3.88693     11.65848        -0.759863     -0.536682      0.087698
O       1.86153     15.54849     11.73231         0.236733      0.559068     -0.632323
O      13.63998      3.84045     11.52457        -0.195359      0.510218      0.762765
O      13.61258      0.09618     11.68892         0.361343     -2.177728     -0.326790
O       1.93636      7.77144      2.81324        -0.190291     -0.840230     -0.141512
O       2.05502      7.81059     16.09463        -0.299254     -1.424429     -0.127945
O      13.54708      7.76813      2.83779         0.598388      0.269307      0.040117
O      13.61919      7.69189     16.01335        -0.006989      0.635351     -0.174059
O       1.96564      7.73567      7.26433        -0.116224      1.252005      0.002746
O      13.50284      7.75713      7.13193         0.537390      0.395437      0.369987
O       1.90676      7.76666     11.60623         0.081533      0.336212      0.041221
O      13.67592      7.77695     11.64809         0.100725     -0.310957      0.014583
O       1.96972     11.59629      2.83735         0.255799      0.819032      0.134796
O       1.98845     11.70022     15.93202        -0.176979      0.131475      0.359790
O      13.66677     11.64883      2.72673         0.185498     -0.120157      0.042830
O      13.69793     11.60410     16.13948        -0.711738      0.130909     -0.601064
O       1.99242     11.69953      7.31787        -0.478578      0.099427     -0.682319
O      13.64630     11.69869      7.18559         0.224329     -0.041933      0.103347
O       1.93454     11.68817     11.80648        -0.003883     -0.128559     -0.713139
O      13.53470     11.66681     11.71579         0.172447      0.440927     -0.121053
O       5.86717      3.78188      2.77856        -0.438486      0.801090     -0.020008
O       5.91294      3.87486     16.08998        -0.249850      0.859174     -0.201908
O       5.74386     15.50812      2.93080         0.381046      1.354616      0.061966
O       5.86889      0.00893     15.92584         0.051067      0.166780      0.168658
O       5.88666      3.93069      7.28385        -0.262036      0.160706     -0.327269
O       5.88515      0.07670      7.10852        -0.336077     -0.875395      0.608458
O       5.73559      3.87344     11.71356         0.626686     -0.379128     -0.156471
O       5.81054      0.06153     11.59491         0.265764     -0.270278     -0.087116
O       5.92121      7.75264      2.82160        -0.076525     -0.570437     -0.361451
O       5.88610      7.81162     16.00935        -0.402290     -1.435120     -0.089815
O       5.79228      7.78926      7.34258        -0.344907     -0.288151     -0.116854
O       5.84971      7.82599     11.65467        -0.181710     -0.543851      0.118967
O       5.79039     11.70425      2.62806         0.014205     -0.667413      0.819089
O       5.77313     11.74003     16.07933        -0.146836     -0.681286     -0.385526
O       5.91176     11.66827      7.05473        -0.350450      0.694675      0.632911
O       5.86075     11.76304     11.59982        -0.062600     -0.997177     -0.239085
O       9.85351      3.79375      2.72947        -0.511921      0.342856      0.461120
O       9.63458      3.95963     15.99400         0.504903     -1.336361      0.378007
O       9.78965     15.53953      2.79037        -0.181217     -0.073643      0.286230
O       9.79970     15.56165     16.00074        -0.810934      0.428874     -0.008022
O       9.64935      3.95021      7.21689         0.516498     -0.827732      0.195706
O       9.74702     15.55264      7.42648        -0.647139      0.887296     -0.802599
O       9.74031      3.90015     11.72847         0.034638      0.295283     -0.178284
O       9.86782     15.58966     11.62419        -1.115371     -0.166464      0.160365
O       9.64073      7.68339      2.74654         0.344441      0.589711      0.167620
O       9.75076      7.80957     16.16125        -0.253221     -0.067922     -0.557135
O       9.86028      7.70919      7.22110        -0.286449      1.704763      0.220417
O       9.63684      7.80610     11.60162         0.302504     -0.862609      0.224625
O       9.73568     11.60623      3.03304         0.240877      0.611979     -0.657375
O       9.77319     11.71724     16.04508         0.027866     -1.101520     -0.007887
O       9.69557     11.63147      7.20417         0.031209      0.257151     -0.317693
O       9.76473     11.64571     11.72292        -0.192362      0.749433      0.038687
