  # total energy = -7881.24559580 
CRSYTAL
PRIMVEC
    15.3600000000000000    0.0000000000000000    0.0000000000000000
     0.0000000000000000   15.3600000000000000    0.0000000000000000
     0.0000000000000000    0.0000000000000000    17.440000000000000
PRESSURE
2.17494 2.51921 2.57708 -0.327881 -0.267635 -0.041749
PRIMCOORD
320 1
Pb       3.83788      3.82600      4.37691        -0.868139      0.339044     -0.591859
Pb       3.89208      3.83373     17.39423        -0.071577     -0.386616     -0.036812
Pb       3.81108      0.02364      4.29094        -0.219050     -0.163081     -0.149502
Pb       3.66498      0.00845     17.38200         1.060578     -0.051846      0.554589
Pb       0.02939      3.71564      4.34912         0.120868      1.112637      0.479138
Pb       0.07541      3.98243     17.39227         0.002180     -0.287119      0.283051
Pb       0.05069     15.34826      4.29183        -0.662174     -0.256562      0.850020
Pb      15.24239     15.29446     17.38894         0.039219      0.035815      0.373419
Pb       3.75407      3.72772      8.74571         0.150892      0.109427      0.215850
Pb       3.90597      0.01465      8.56499        -0.684369     -0.368897      0.817914
Pb      15.22426      3.90043      8.64454         0.250002     -0.211349      0.346815
Pb      15.21662      0.02117      8.66888         0.346235     -0.200870      0.466002
Pb       3.68396      3.71924     13.08838         0.523716     -0.094897     -0.379023
Pb       3.71604     15.30728     12.96531         0.219091      0.172061      0.339543
Pb       0.03266      3.79326     13.05872        -0.222871      0.293098     -0.334101
Pb       0.01466     15.33101     13.05195        -0.105453     -0.346241     -0.351591
Pb       3.85747      7.64625      4.32754        -0.301285      0.294063     -0.547304
Pb       3.79206      7.57285     17.35144         0.065324      0.452948      0.383927
Pb       0.08286      7.81547      4.36274        -0.082189     -0.403441     -0.246771
Pb      15.12562      7.68566     17.35796         0.383210      0.646146      0.644370
Pb       3.87722      7.69812      8.68031        -0.121693      0.215797      0.502837
Pb       0.07518      7.59282      8.63224        -0.408499      0.031922      0.228133
Pb       3.78677      7.56725     12.95590         0.578990      0.574637      0.445930
Pb       0.01988      7.62610     13.09876        -0.054137     -0.026646      0.239983
Pb       3.79643     11.59708      4.21012        -0.181224     -0.572335      0.256834
Pb       3.98420     11.58658     17.40081        -0.663426     -0.089303      0.163787
Pb      15.34726     11.57416      4.37359         0.255775     -0.759525     -0.716025
Pb      15.28967     11.59963     17.26687         0.287967     -0.861804      1.031951
Pb       3.86819     11.54642      8.60490        -0.327202     -0.252599     -0.101490
Pb      15.24526     11.40519      8.67337         0.250611      0.053710     -0.140948
Pb       3.88087     11.49753     13.16591         0.104615     -0.274285     -0.417469
Pb       0.11713     11.58813     13.07773        -0.278861     -0.384235      0.407107
Pb       7.72689      3.73030      4.38757         0.272520      0.780441     -0.019895
Pb       7.66569      3.90411     17.36731        -0.166467     -0.463663      0.553699
Pb       7.73072      0.04882      4.34637        -0.398665     -0.136460     -0.057462
Pb       7.61678      0.08584     17.30958         0.115535     -0.256413      0.282325
Pb       7.67616      3.77239      8.77128        -0.697988      0.103816     -0.121240
Pb       7.64784     15.17782      8.66914        -0.058311      0.463436      0.276638
Pb       7.82497      3.87624     13.13824        -0.123558      0.443592     -0.740164
Pb       7.61714      0.13243     13.04751         0.361952     -1.077540      0.363227
Pb       7.69928      7.53413      4.30022         0.230817      0.387164      0.479739
Pb       7.63659      7.77247     17.37184         0.168000     -0.124008      0.597247
Pb       7.65117      7.70019      8.63492        -0.058569     -0.073663      0.475073
Pb       7.53309      7.69354     13.00414         0.386926      0.014219     -0.137087
Pb       7.65886     11.55797      4.30357        -0.560537     -0.744078      0.687345
Pb       7.76362     11.50041      0.02356        -0.020077     -0.062345     -0.170627
Pb       7.45685     11.55359      8.52828         0.903122     -0.183620      0.961141
Pb       7.71926     11.43832     13.04540        -0.038726     -0.075104     -0.058893
Pb      11.43795      3.80609      4.29090         0.017811     -0.133129      0.949010
Pb      11.75332      3.87544     17.43089        -0.977560      0.080011      0.211192
Pb      11.46371     15.23989      4.29704         0.670523      0.954867      0.300459
Pb      11.39581     15.28554      0.00013         0.425974      0.207290     -0.281119
Pb      11.35647      3.87918      8.69604         1.051480     -0.394851     -0.040060
Pb      11.54204     15.31351      8.69124        -0.114372      0.024720      0.180073
Pb      11.61165      3.72885     13.10137        -0.327290      0.402315     -0.503601
Pb      11.61215      0.00523     12.93932        -0.690424     -0.780781      0.845737
Pb      11.46370      7.68546      4.28435         0.420014     -0.322126      1.195709
Pb      11.58069      7.63505     17.37249         0.100895      0.203443      0.257596
Pb      11.46408      7.68021      8.71757         0.324174     -0.206891     -0.475348
Pb      11.39710      7.67883     13.03740         0.148778     -0.038785     -0.039962
Pb      11.59319     11.43862      4.29677        -0.051799      0.011415      0.321913
Pb      11.43123     11.40568     17.35513         0.220608      0.431533      0.574481
Pb      11.64948     11.49032      8.56227        -0.744322      0.126055      1.206520
Pb      11.54177     11.44775     12.98816        -0.467801      0.552670      0.512198
Ti       1.80147      1.83118      2.30402         1.476356      1.376645      0.073171
Ti       1.80309      1.88683     15.46444         1.222326     -0.026565     -0.322109
Ti       1.86743     13.42191      2.17585         0.250004     -0.931135     -0.207551
Ti       1.85670     13.46656     15.44141         0.916584     -1.062622      1.960320
Ti      13.43257      1.96747      2.33799        -1.337370     -0.420186      0.815801
Ti      13.42168      1.92783     15.48035        -0.816079     -1.514780     -0.558833
Ti      13.45611     13.47217      2.31711        -0.881529     -0.232736      0.493083
Ti      13.33570     13.41524     15.37346         0.608082      0.572960     -0.209780
Ti       1.84786      1.89325      6.73050         0.102383     -0.210253      0.050624
Ti       1.75205     13.46429      6.70372         1.171621     -0.963113      0.892223
Ti      13.40403      1.91952      6.70687        -0.663991     -0.418763     -0.577040
Ti      13.37434     13.43924      6.72266        -0.037586     -0.658549     -1.244142
Ti       1.75851      1.84125     11.02021         1.827709      0.101782     -0.366156
Ti       1.93881     13.29249     10.99955        -0.760734      1.220589      0.470569
Ti      13.40029      1.85888     11.00458         0.078266      0.202168     -0.481402
Ti      13.35778     13.27231     11.08190         0.669193      0.993651     -0.235578
Ti       1.82679      5.75977      2.26256         0.239355      0.144436      2.730911
Ti       1.91919      5.82027     15.38990         0.562760     -0.526467      0.239256
Ti      13.41796      5.76765      2.58092         1.173847      0.472543     -0.387506
Ti      13.44387      5.69356     15.32241        -0.633025      2.062375      0.843871
Ti       1.97042      5.70577      6.86510        -1.230000      0.321933     -2.118497
Ti      13.39671      5.66616      6.63720         0.196410      1.197484      0.262247
Ti       1.86974      5.74955     11.03687        -0.076756     -0.387421      0.562859
Ti      13.41482      5.75154     11.02915         0.130198     -0.644598      0.223357
Ti       1.94751      9.57312      2.18515        -0.641943      0.453908      0.447408
Ti       1.92150      9.61123     15.47138        -0.609756      0.632099      0.684950
Ti      13.42677      9.62724      2.40151         1.414463     -1.149218     -0.509422
Ti      13.42802      9.70046     15.31013         0.330520     -1.937537      0.741227
Ti       1.94506      9.59060      6.66363         0.348508     -0.520807     -0.233650
Ti      13.44986      9.41788      6.71604         0.669926      0.291115     -1.046431
Ti       1.90298      9.54428     11.04346         1.426672     -0.094965      0.313482
Ti      13.56049      9.51083     11.09056        -1.010305      1.013300     -0.032493
Ti       5.76377      1.93963      2.38400        -0.781299     -0.899098     -1.651055
Ti       5.73837      1.87588     15.40669        -1.320561      0.178816      1.026768
Ti       5.76535     13.50382      2.38832        -1.154431     -0.450362      0.624466
Ti       5.80313     13.42981     15.38051        -0.778987      0.058744     -1.116900
Ti       5.74771      1.89041      6.67092        -0.311424      0.253751      1.567726
Ti       5.66332     13.42464      6.57524        -0.106098     -0.334029     -0.034362
Ti       5.72932      1.93754     11.05141        -0.868042     -0.354048      1.183295
Ti       5.72505     13.46272     11.13449        -0.219310     -0.766344      0.875296
Ti       5.77607      5.67715      2.33015        -0.960286      0.731914     -0.266750
Ti       5.82133      5.72501     15.38112        -1.614583      0.197529      0.045309
Ti       5.75501      5.67356      6.70109        -0.178216     -0.083799      1.481092
Ti       5.73511      5.75014     11.00782         0.452077     -0.082108      1.150641
Ti       5.81849      9.54260      2.31991        -0.989098      0.901175      0.008463
Ti       5.73311      9.58510     15.49473         0.138236     -0.328901     -0.697082
Ti       5.80727      9.48983      6.63763        -0.771060      0.890888     -1.397706
Ti       5.77064      9.62783     11.04150         0.017752     -1.020417      1.515597
Ti       9.60401      1.91564      2.22106         0.285138      0.296513     -0.809049
Ti       9.57183      2.00601     15.43341         0.581734     -0.844623      0.310428
Ti       9.58856     13.41356      2.46386        -0.560847     -0.396674     -2.058948
Ti       9.59435     13.48709     15.41403         0.532653     -0.000170     -1.924472
Ti       9.54862      1.88377      6.75449         0.568743     -0.724563      0.349301
Ti       9.55659     13.48416      6.69813        -0.164595     -0.950410      1.800747
Ti       9.54977      1.88127     11.03319        -0.060503     -0.070064      1.616724
Ti       9.50230     13.43225     11.05860         0.487567     -0.517781      1.379667
Ti       9.61362      5.70565      2.30741        -0.370483      0.605144      1.578418
Ti       9.55643      5.76977     15.50321         1.685905     -0.049159     -1.426248
Ti       9.56149      5.67488      6.80659        -0.163529      1.221924     -2.628806
Ti       9.64594      5.73767     10.99720        -0.989707      0.054019      2.593871
Ti       9.60720      9.59488      2.37676        -0.312041     -0.449310     -0.568043
Ti       9.65176      9.58547     15.41667        -0.921953     -0.167612      0.737252
Ti       9.65274      9.66174      6.78966        -1.230381     -0.639004     -0.724990
Ti       9.68461      9.61931     10.90309        -1.116145     -0.281687      2.291961
O       1.88046      1.90546      0.55492        -0.613800      0.050483      0.105710
O       1.86805      1.72263     13.67868        -0.310615      0.284395      0.150872
O       1.88257     13.37194      0.40853        -0.099772      0.150604      0.723454
O       1.89963     13.45279     13.72873        -0.006816     -0.023065     -1.822715
O      13.44955      2.01512      0.59577        -0.005730      0.520289     -1.038957
O      13.36262      1.70595     13.72732         0.602483      0.674067     -0.043766
O      13.33999     13.45812      0.61578        -0.095341     -0.203059     -1.226188
O      13.24412     13.31843     13.61799         0.696265      0.660340     -0.080298
O       1.89199      1.84172      4.96054        -0.182164     -0.137799     -0.543942
O       1.84099     13.50703      4.99187        -0.335850      0.069051     -1.199257
O      13.31748      1.76373      4.97045         0.206802      0.181161     -0.131434
O      13.35441     13.43890      4.92759         0.106870     -0.104283      0.264545
O       1.87364      1.92617      9.25428        -0.429965     -0.308911      0.622054
O       1.81953     13.26985      9.27789         0.223151     -0.150165     -0.898303
O      13.36106      1.78895      9.21890         0.225367      0.423062      0.191127
O      13.37297     13.27762      9.30659         0.201541      0.102500     -0.901120
O       1.88101      5.80274      0.55850        -0.052810     -0.482590     -1.955953
O       1.84984      5.68272     13.65308         0.032275      0.313782     -0.328215
O      13.52213      5.72570      0.80952        -0.571770     -0.567573     -1.186419
O      13.43103      5.76545     13.61388        -0.238199     -0.220865     -1.070683
O       1.84182      5.74381      5.08653         0.764164     -0.121393      0.451991
O      13.37230      5.84325      4.93108         0.587284     -0.368152     -1.209023
O       1.68011      5.76602      9.30603         0.647324     -0.270590     -0.736281
O      13.41719      5.61893      9.27267        -0.259988      0.341786     -0.006947
O       1.83401      9.60100      0.42953         0.179332      0.018021      0.328185
O       2.04194      9.64315     13.74228        -0.370645     -0.049175     -0.890997
O      13.51480      9.59625      0.66234        -0.512749     -0.067117     -1.070154
O      13.44256      9.62786     13.59578        -0.145024     -0.189880     -0.879045
O       1.96155      9.56295      4.88348        -0.184429     -0.286777      0.548481
O      13.56512      9.52316      4.92480        -0.547719      0.131006      0.311644
O       1.99491      9.44302      9.28254        -0.546104      0.514374      0.575047
O      13.52119      9.57006      9.31185        -0.223438     -0.151804      0.116664
O       5.70954      1.92411      0.60489         0.432765     -0.003233      0.354836
O       5.51339      1.98716     13.71793         0.710218     -0.336111     -1.457198
O       5.75835     13.50324      0.66522         0.320433     -0.321904     -1.065069
O       5.64432     13.39204     13.58676         0.274516      0.097157      0.794778
O       5.64003      1.95615      4.95167         0.151095     -0.011577     -1.087365
O       5.59756     13.52370      4.85007         0.199986     -0.134907     -0.473914
O       5.79635      1.82036      9.34323        -0.325889      0.189770     -1.501417
O       5.68239     13.24364      9.42509        -0.000545      0.442855     -2.128983
O       5.70236      5.56082      0.56598         0.195064      0.500535      0.231344
O       5.74007      5.84035     13.62905         0.369045     -0.440418      0.499852
O       5.75562      5.66483      4.96669        -0.291338     -0.123946     -0.785319
O       5.88207      5.83409      9.28944        -0.262091     -0.444389     -0.586451
O       5.74586      9.69798      0.55291         0.271281     -0.151119     -0.516739
O       5.94454      9.52001     13.72917        -0.692504      0.070802      0.354104
O       5.76355      9.51331      4.85773         0.061217     -0.130007      0.548593
O       5.65723      9.49474      9.35033         0.435382      0.338894     -2.541451
O       9.66371      1.97399      0.42041        -0.270870     -0.339985      1.154385
O       9.43109      1.94560     13.67565         0.292590      0.520479     -0.724367
O       9.54925     13.30014      0.64392         0.174609      0.388507      0.950389
O       9.69372     13.50557     13.65517        -0.391294     -0.435706      0.363301
O       9.45364      1.87329      5.03659         0.197144     -0.011718     -1.343537
O       9.42067     13.44496      5.01429         0.455972      0.288399     -2.728537
O       9.37181      1.88657      9.33501         0.733197     -0.066806     -1.456760
O       9.57465     13.47708      9.35713        -0.286914      0.087288     -1.577913
O       9.46677      5.77659      0.61967         0.450019     -0.094378     -1.433814
O       9.69941      5.60129     13.69856        -0.510244      0.178000      0.540605
O       9.30370      5.67990      4.99896         0.505998     -0.144664      0.738063
O       9.62846      5.64415      9.29889        -0.055993     -0.175121     -2.898153
O       9.57259      9.71347      0.59923         0.301769     -0.068688      0.207532
O       9.51895      9.62704     13.71015         0.374246     -0.460391     -0.920600
O       9.43635      9.49940      5.03930         0.754248      0.375301     -0.001052
O       9.60554      9.66268      9.18935         0.291943     -0.402837     -0.928034
O       3.73682      1.78070      2.63128        -0.316205      0.483836      0.612728
O       3.81254      1.81446     15.84369        -0.306925      0.110511      0.150821
O       3.68519     13.51191      2.67827         0.916758      0.078785      0.197779
O       3.84087     13.47093     15.89862         0.211661     -0.094880     -0.487059
O      15.22450      1.81467      2.90199         0.889837      0.728320     -0.774393
O      15.29225      2.02049     15.82388         0.264974     -0.637460      0.192842
O      15.30747     13.38393      2.52277        -0.320412      0.098799      0.819416
O      15.31706     13.44671     15.78601        -1.065340      0.394535     -0.169456
O       3.73911      1.89955      7.17568         0.970879     -0.442669     -0.217267
O       3.78527     13.38042      7.01406        -0.163329      0.252875      0.455802
O      15.32883      1.89222      7.09596        -1.028283     -0.293364      0.093644
O      15.24006     13.23807      7.11449         0.107100      0.503406     -0.069756
O       3.73399      1.79449     11.53130        -0.232778      0.879897     -0.506136
O       3.78827     13.30159     11.43815         0.135702      0.203740      0.282215
O      15.28035      1.88901     11.59976         0.405151     -0.431339     -0.511646
O      15.31503     13.29203     11.52213         0.279512      0.613276     -0.125397
O       3.80743      5.71777      2.79742        -0.056348      0.267667     -0.102507
O       3.84619      5.64432     15.73575        -0.375421      0.604205      0.330302
O      15.34407      5.66094      2.81030         0.107142      0.251527      0.179600
O      15.34899      5.79785     15.79638        -0.154868     -0.407965     -0.102830
O       3.81675      5.70315      7.30465         0.754537     -0.420943     -0.520544
O      15.34271      5.70828      7.14432        -0.415436     -0.068154      0.054417
O       3.77064      5.78997     11.38756         0.205068     -0.347060     -0.153678
O      15.29724      5.79478     11.50812         0.266949      0.024422      0.090989
O       3.83509      9.45914      2.61009        -0.371036      0.559642      0.283089
O       3.77597      9.60836     15.83833         1.253526      0.180825      0.263028
O      15.33516      9.75581      2.73942         0.668045     -0.602891      0.426997
O      15.27063      9.53265     15.76559         0.306972      0.227034     -0.020012
O       3.88197      9.48031      7.11380        -0.220526      0.485194     -0.211983
O      15.34542      9.43576      7.12066         0.403167      0.338150     -0.202374
O       3.87049      9.46373     11.43102        -0.986476      0.560268      0.392640
O       0.04676      9.47634     11.64469         0.084061      0.757530     -0.882338
O       7.70309      1.83081      2.70357        -0.411559      0.448055      0.082612
O       7.62600      1.97566     15.76451         0.267109     -0.188797      0.248869
O       7.56981     13.43659      2.86200         1.617724      0.193745     -0.181052
O       7.74890     13.48959     15.69680        -1.291231     -0.564385      0.592956
O       7.62549      1.83035      7.05995        -0.473013      0.272031      0.225782
O       7.62170     13.42446      7.03558        -0.453123      0.272153      0.322345
O       7.64218      1.75509     11.44223        -0.164821      1.024841      0.108528
O       7.58087     13.44265     11.45752         1.193715      0.167583      0.234277
O       7.61664      5.71696      2.80616         0.413414     -0.204935     -0.474654
O       7.71267      5.87667     15.86103        -1.247648     -0.614070     -0.228793
O       7.60864      5.50639      7.08291         0.114985      0.678152      0.501927
O       7.70538      5.77143     11.46282        -0.160911     -0.592532      0.022042
O       7.71351      9.67819      2.60942         0.004299     -0.686630      0.430594
O       7.68062      9.54449     15.88304        -0.177246      0.413209      0.088123
O       7.65586      9.55626      7.16395        -0.021614      0.097090     -0.015374
O       7.70417      9.50803     11.48986         0.747515     -0.128588     -0.431382
O      11.45559      1.98200      2.73609        -0.520133     -0.159505     -0.187448
O      11.50462      1.95588     15.65452        -0.099229      0.449493      0.835172
O      11.45303     13.32767      2.83795        -0.198805      0.368316     -0.038877
O      11.54185     13.54196     15.79081        -0.901765     -0.576020      0.712194
O      11.49369      1.75489      7.08418        -0.400415      0.643872      0.456004
O      11.45386     13.38096      7.06235         0.678879      0.047802      0.132556
O      11.56024      1.88024     11.48872        -1.197958      0.609714     -0.415194
O      11.51437     13.38029     11.43157        -0.663716     -0.137420     -0.037049
O      11.51454      5.74480      2.92657        -1.042161     -0.457655     -0.748654
O      11.47271      5.81429     15.85421         1.053651     -0.782726      0.221454
O      11.46977      5.71572      6.79394        -0.704653     -0.421219      1.554123
O      11.51787      5.57045     11.34205         0.457621      0.462721      0.581712
O      11.51678      9.46409      2.76255        -0.753305      1.057559      0.212756
O      11.52510      9.61275     15.86296         0.079602     -0.209383     -0.247797
O      11.56232      9.49734      7.21499        -0.992025      0.045089     -0.524327
O      11.54269      9.57483     11.67784        -0.500974     -0.189948     -1.686329
O       1.76567      3.86457      2.77497         0.615144     -1.428952     -0.339593
O       1.92705      3.73663     15.71273        -0.267195      1.175878      0.418066
O       1.67578     15.32637      2.68244         0.649248     -0.050807     -0.252237
O       1.83805     15.28310     15.97801        -0.477392      1.577126     -0.657336
O      13.34022      3.83575      2.99398         0.548016     -0.862879     -0.730394
O      13.40179      3.88082     15.76927         0.145078     -0.414353      0.151616
O      13.21399      0.06404      2.55607         0.365518     -1.151140      0.665261
O      13.40378     15.33616     15.99848         0.006532      0.628664     -0.587594
O       1.81616      3.72400      7.10760         0.542092      1.036346      0.391197
O       1.73208     15.29521      7.14836         0.426032      0.136868      0.051672
O      13.34992      3.81523      7.04213         0.032593     -0.788253      0.258123
O      13.37211     15.29232      7.08411         0.504197     -0.416802      0.339198
O       1.86608      3.82991     11.42654        -0.318615     -0.478438      0.288087
O       1.86034     15.28595     11.32742        -0.437649     -0.019686      0.396333
O      13.54777      3.80993     11.43395        -0.478688     -0.209647      0.300859
O      13.35156     15.33553     11.31822         0.765223     -0.392747      0.370609
O       1.79038      7.70517      2.64125         0.225378     -0.504521      0.170823
O       1.98020      7.69627     15.79323        -0.346437     -1.065950     -0.204156
O      13.49674      7.66119      2.68814        -0.220285      0.180127      0.799766
O      13.35218      7.68019     15.82176         0.114905     -0.515928     -0.225164
O       1.95765      7.61028      7.14994        -0.182915      0.399376      0.070582
O      13.35847      7.54784      7.09031         0.070074      0.587102      0.564219
O       1.90509      7.62904     11.57450        -0.421248      0.451033     -0.421484
O      13.38040      7.72605     11.44902        -0.190987     -1.895650      0.167650
O       1.90335     11.52857      2.75325         0.086794      0.277585     -0.355839
O       1.76412     11.56181     15.83290         0.692278     -0.468237     -0.375343
O      13.33649     11.45222      2.70129        -0.251945      2.035924      0.752162
O      13.40179     11.51935     15.69796        -0.160936      0.723754      0.463407
O       1.88977     11.42218      6.92183        -0.090208      0.645856      0.721318
O      13.37449     11.32810      7.07933         0.366779      1.323190     -0.098758
O       1.97774     11.49082     11.54550        -0.507878     -1.551271     -0.183892
O      13.42628     11.44116     11.42803         0.111793     -0.449096      0.195741
O       5.62720      3.79396      2.70816         0.436230      0.013847      0.583431
O       5.69836      3.82652     15.84223         0.683315      0.185083     -0.268331
O       5.69160      0.02033      2.78101         0.325230      0.173110      0.294427
O       5.83455     15.29322     15.81191        -0.193081      0.719408     -0.131019
O       5.64859      3.76751      7.27776         0.179751     -0.378311     -0.692199
O       5.69939     15.30655      7.03720        -0.031047      0.507860      0.198169
O       5.60775      3.80119     11.46484         0.517700      0.132390     -0.226390
O       5.61204     15.33662     11.41351         0.363480      0.199619      0.304150
O       5.78241      7.71059      2.64706         0.118951     -1.563645      0.210993
O       5.69619      7.64077     15.91938         0.135225     -0.051691     -0.201209
O       5.75937      7.64561      7.01738         0.304360     -1.193907      0.220987
O       5.75046      7.62669     11.42805         0.100066     -0.101810      0.448673
O       5.70638     11.50543      2.82783        -0.120265      0.358818     -0.440073
O       5.64578     11.52424     15.70767         0.730780     -0.047118      0.443107
O       5.75974     11.50360      6.94936        -0.362373     -0.159948      0.267957
O       5.87455     11.41428     11.46112        -0.698947      1.111073      0.505376
O       9.49115      3.82716      2.69077         0.237210     -0.534433      0.153905
O       9.53208      3.88423     15.93063         0.182100     -0.039245     -0.432983
O       9.55221     15.35779      2.71580         0.276284     -0.440644      0.063977
O       9.60343      0.05017     15.70138        -0.140683      0.123661      0.944999
O       9.59258      3.74508      7.10759        -0.042780      0.361108      0.662675
O       9.58543     15.33185      7.17957        -0.346284     -0.125252      0.107208
O       9.56052      3.80929     11.42164        -0.144436     -1.085703      0.264788
O       9.54730     15.28807     11.52137         0.265199      1.128278     -0.285639
O       9.72834      7.59593      2.80055        -1.626620      0.643876     -0.516917
O       9.65455      7.67008     15.91235        -0.265616      0.415808     -0.195081
O       9.54187      7.62105      7.12084         0.085330     -0.248794      0.575605
O       9.69077      7.63491     11.24926         0.341689      0.383893      0.380489
O       9.49838     11.48094      2.84683         0.842466      0.363397      0.003734
O       9.61078     11.48955     15.81662        -0.026968      0.477271      0.212318
O       9.50558     11.53879      7.10586         0.519199     -0.285505     -0.147994
O       9.53798     11.44659     11.44116         0.225407      0.507724     -0.082764
