  # total energy = -7883.23153001 
CRSYTAL
PRIMVEC
    15.3600000000000000    0.0000000000000000    0.0000000000000000
     0.0000000000000000   15.3600000000000000    0.0000000000000000
     0.0000000000000000    0.0000000000000000    17.440000000000000
PRESSURE
1.73843 2.04076 -0.77703 -0.02988 0.02547 -0.048798
PRIMCOORD
320 1
Pb       3.78852      3.83040      4.34978         0.310319     -0.005479     -0.109651
Pb       3.85781      3.83150     17.37836         0.005588     -0.005921     -0.093573
Pb       3.81606      0.02098      4.28048        -0.112280      0.307592     -0.028452
Pb       3.68907      0.03341     17.42381         0.279298     -0.018727     -0.009687
Pb       0.01674      3.73657      4.36166        -0.419414     -0.051176     -0.229973
Pb       0.06272      3.97169     17.38077        -0.674135     -0.663888      0.154010
Pb       0.00210     15.31481      4.29638         0.095073      0.214415     -0.159151
Pb      15.23837     15.28149     17.41727         0.671363      0.726952      0.074392
Pb       3.76720      3.72910      8.75773         0.134817      0.135641     -0.292092
Pb       3.91026      0.00050      8.59649        -0.656023     -0.059785      0.975303
Pb      15.28226      3.84240      8.67754         0.113274     -0.111910     -0.344508
Pb      15.25329      0.03972      8.66222         0.531990     -0.375876      0.257537
Pb       3.65987      3.75052     13.05962         0.350878      0.418542      0.103536
Pb       3.72481     15.27887     12.99602         0.033728      0.368967      0.546392
Pb       0.01076      3.80278     13.05142        -0.189341     -0.244315      0.179671
Pb       0.03478     15.34755     13.02681        -0.268016      0.289300      0.345951
Pb       3.84117      7.64058      4.30902         0.113543     -0.131825     -0.214296
Pb       3.77655      7.59127     17.34754         0.189423      0.578768      0.235257
Pb       0.05189      7.77823      4.36745        -0.056108     -0.526876      0.408543
Pb      15.11751      7.69557     17.33004         0.972311     -0.298641      0.501533
Pb       3.90367      7.67211      8.73354         0.048481     -0.216879     -0.893264
Pb       0.08305      7.59469      8.65714        -0.430732      0.209477      0.664818
Pb       3.77481      7.59442     12.95534         0.002702      0.160184      0.942539
Pb       0.03867      7.62638     13.08213        -0.357091      0.093150     -0.149563
Pb       3.77431     11.58010      4.21151         0.186815     -0.568806      0.267477
Pb       3.96920     11.55603     17.41180         0.002691     -0.305013      0.072566
Pb      15.30574     11.57439      4.35036         0.644450      0.200753      0.193046
Pb      15.29320     11.58902     17.29247        -0.163671     -0.197094      0.451482
Pb       3.83843     11.54639      8.60605        -0.106082      0.163539      0.246689
Pb      15.24113     11.38784      8.65281         0.730521      0.451408      0.383257
Pb       3.85074     11.52080     13.16247         0.003426     -0.223153     -0.360874
Pb       0.06326     11.57006     13.11113        -0.342661     -0.467492     -0.207185
Pb       7.72475      3.73100      4.40437        -0.431256      0.311894      0.284947
Pb       7.65290      3.90925     17.35573         0.332044     -0.149961     -0.197441
Pb       7.73832      0.06989      4.31497        -0.259481      0.081856     -0.325628
Pb       7.66010      0.06787     17.33672        -0.414759     -0.058946      0.345955
Pb       7.70562      3.73096      8.76018        -0.303805     -0.185637      0.478344
Pb       7.63463     15.16738      8.63047        -0.014084      0.682464      1.236371
Pb       7.77627      3.84491     13.17849        -0.316666      0.334536     -0.527204
Pb       7.58287      0.10563     13.07215         0.256481     -0.669045      0.289561
Pb       7.67360      7.56349      4.29722        -0.045268     -0.001349      0.209681
Pb       7.67329      7.74197     17.38402         0.213873     -0.908977      0.113298
Pb       7.61523      7.70019      8.63991        -0.115213     -0.115728      0.674135
Pb       7.50832      7.66854     12.99093         1.007350     -0.008207      0.421066
Pb       7.66654     11.55414      4.32027         0.002975     -0.183197     -0.181730
Pb       7.76811     11.49491      0.05937        -0.088354      0.513702     -0.289755
Pb       7.45374     11.51348      8.55641         0.600200      0.156694      1.093964
Pb       7.68245     11.41676     13.07742        -0.029185      0.181114     -0.508576
Pb      11.43608      3.80206      4.31158         0.208870      0.432862      0.340005
Pb      11.72507      3.85944     17.39196        -0.861321      0.024127      0.541209
Pb      11.42430     15.26839      4.28158         0.189062      0.150140      0.254417
Pb      11.47479     15.30239     17.42030        -0.271562      0.222902      0.202231
Pb      11.37098      3.87029      8.69709         0.300133     -0.293463      0.633006
Pb      11.54226     15.28171      8.66466        -0.746594     -0.107077      0.473995
Pb      11.59658      3.75390     13.10814        -0.264760      0.391533     -0.147300
Pb      11.62023      0.00246     12.90543        -0.379745     -0.104056      0.949336
Pb      11.43144      7.73618      4.28305         0.206584     -0.347411      0.096061
Pb      11.59823      7.61471     17.37443        -0.558031      0.000714      0.516500
Pb      11.43111      7.64666      8.71203         0.514845      0.209998      0.537932
Pb      11.43320      7.69922     12.97919         0.664627      0.058478      0.295916
Pb      11.57315     11.44844      4.34244        -0.441755      0.399819      0.228815
Pb      11.46042     11.43759     17.38451         0.427732      0.033071      0.362327
Pb      11.62267     11.51187      8.60538        -0.589863     -0.117271      0.435154
Pb      11.51977     11.45244     12.97974        -0.041567     -0.534306      0.386314
Ti       1.85509      1.89874      2.27306        -0.400321     -0.336532     -0.380352
Ti       1.86509      1.96995     15.48518        -1.021438     -0.346776      0.275827
Ti       1.90760     13.36780      2.22167        -0.708564      0.804816     -0.103905
Ti       1.92414     13.45070     15.45963         0.051913      0.642181     -1.522805
Ti      13.31105      1.88552      2.27983         2.206520      0.532806     -0.139089
Ti      13.37006      1.80853     15.51829         1.067657      1.817553     -1.191620
Ti      13.39327     13.42596      2.38247        -0.383978      0.400826     -1.564029
Ti      13.38266     13.41894     15.38545         0.124558     -0.641374     -0.638356
Ti       1.84071      1.85826      6.63411         0.344171      0.248254      0.956510
Ti       1.83592     13.41313      6.75471         0.030962      0.171462     -1.635900
Ti      13.36999      1.85276      6.67197         0.397988      0.671067     -0.724266
Ti      13.39303     13.38345      6.63218         0.430347      0.332910     -0.599577
Ti       1.84954      1.90525     11.03199        -0.592796     -0.461794     -0.467895
Ti       1.87226     13.39787     11.07955         0.427142     -0.128952     -1.259516
Ti      13.37853      1.91152     10.97316         0.300072     -0.355776      1.741523
Ti      13.40675     13.37958     11.12669         0.186699     -0.810153     -0.600630
Ti       1.83151      5.77584      2.35873         0.530638     -0.840748     -1.343357
Ti       1.91788      5.78415     15.46727        -0.862609      0.001295     -1.879301
Ti      13.44436      5.72851      2.53570        -0.629387     -0.373948     -0.803263
Ti      13.37800      5.72912     15.32232         1.164756     -0.625867     -0.810143
Ti       1.88389      5.72632      6.72516         1.125199     -0.425455      0.467686
Ti      13.37617      5.75744      6.71822         0.481074     -0.175837     -1.829001
Ti       1.87630      5.77283     11.05284         0.028808     -0.692127     -0.157359
Ti      13.45784      5.71084     11.07139        -0.590248      0.476179     -0.406063
Ti       1.96604      9.55986      2.28020         0.945510     -0.151422      0.860442
Ti       1.91756      9.62289     15.46321         1.172488     -0.512732     -0.998033
Ti      13.59565      9.59112      2.39888        -1.113517     -0.017100     -1.020368
Ti      13.48723      9.53798     15.30509        -0.993657      1.276823     -0.307455
Ti       2.00014      9.56744      6.70464        -0.194355      0.263012     -0.899691
Ti      13.50779      9.50764      6.73230        -0.599100     -0.251497     -0.373058
Ti       1.95908      9.61649     11.10820        -0.981389     -0.343043     -0.031327
Ti      13.52407      9.59830     11.05486        -0.638053     -0.784259      0.704936
Ti       5.75840      1.94915      2.35534        -0.289469     -0.383423     -0.200223
Ti       5.65299      1.86540     15.39594         1.518794      0.461525     -1.171251
Ti       5.67239     13.45723      2.33022         1.522457      0.497844     -0.548810
Ti       5.77058     13.39919     15.36313         0.520226      0.383848     -0.059921
Ti       5.72780      1.92059      6.73385        -0.414180      0.001209     -1.559464
Ti       5.72284     13.47785      6.57170        -0.869956     -0.306996      0.629627
Ti       5.71345      1.92059     11.24478        -0.148913      0.555635     -2.135763
Ti       5.73210     13.46215     11.17332         0.874981     -0.928985     -1.398694
Ti       5.75734      5.69414      2.31732        -0.037133      0.253000      0.782388
Ti       5.72901      5.72693     15.32718         1.024539     -0.505994     -0.038690
Ti       5.80020      5.65067      6.77016        -1.413253      0.345806     -0.918155
Ti       5.72491      5.75233     11.03072         0.624249     -1.580221      0.581915
Ti       5.85548      9.59173      2.26630        -1.158589     -0.202170      0.621361
Ti       5.82226      9.55716     15.48168        -1.090146      0.070842     -0.358432
Ti       5.85959      9.57811      6.53285        -1.955028     -0.211903      0.936222
Ti       5.69675      9.54975     11.01622         1.149254      1.093824     -0.825685
Ti       9.62183      1.97169      2.24745        -0.724017     -0.531446     -0.744201
Ti       9.54276      1.95894     15.37088        -0.152763      0.880851      0.216324
Ti       9.54360     13.41078      2.35746         0.397811      0.139609      0.566312
Ti       9.61265     13.48722     15.42840        -0.921796     -0.469216     -0.450751
Ti       9.57179      1.85815      6.79026        -1.038556      0.241621     -0.318959
Ti       9.57116     13.39150      6.66603         0.150427      0.445398     -1.209026
Ti       9.52230      1.86377     11.14840         0.445643      0.775302     -1.723765
Ti       9.60114     13.34326     11.09730        -0.921366      0.925251     -0.837365
Ti       9.51526      5.69439      2.33814         1.170944      0.846623     -1.298737
Ti       9.66028      5.79939     15.37830        -1.088209     -0.931782      0.891507
Ti       9.57931      5.78914      6.82072        -0.723360     -1.039756     -1.002501
Ti       9.61917      5.79275     11.05294        -0.172663     -1.085283     -1.126054
Ti       9.64034      9.64657      2.41136        -0.243353     -0.545640     -0.381134
Ti       9.63847      9.58496     15.43499         0.370075      0.051107     -1.171839
Ti       9.62898      9.61246      6.70868         0.202770      0.070247     -0.567086
Ti       9.62078      9.57924     10.89550         0.055641      0.029868      0.554204
O       1.81643      1.83878      0.47698         0.497631      0.397235      0.548301
O       1.79190      1.89507     13.74643         0.231484      0.250291     -1.500549
O       1.88611     13.42507      0.42160         0.092670      0.104151      0.194044
O       2.05049     13.40423     13.58728        -0.561386      0.172388      1.610723
O      13.39307      2.08637      0.49257         0.007059     -0.882634      0.189277
O      13.36108      1.76529     13.73953         0.109557      0.317955      0.033228
O      13.28610     13.33560      0.54913         0.580840      0.264576      0.834351
O      13.45721     13.36651     13.60384        -0.298802      0.141018      0.381449
O       1.78135      1.79568      4.88114         0.214699      0.288403     -0.438545
O       1.70663     13.45755      4.92129         0.661948     -0.286058      0.835414
O      13.43829      1.78000      4.90341        -0.326948      0.201182      1.056124
O      13.34924     13.41742      4.84769         0.306782      0.273680      0.261878
O       1.80100      1.88148      9.27640         0.068997      0.053584      0.156677
O       1.93667     13.29958      9.29837        -0.224613      0.136734      0.347017
O      13.37955      1.84187      9.26454         0.071475      0.079219     -1.607703
O      13.37123     13.27550      9.36785        -0.059985      0.022979     -0.622611
O       1.85267      5.73171      0.52886         0.166035      0.096081      0.463854
O       1.87105      5.71314     13.63069         0.055860      0.022920      0.918131
O      13.33764      5.70236      0.72371         0.456392      0.432126      0.544828
O      13.36571      5.76722     13.56104         0.257800     -0.244611     -0.126591
O       2.06719      5.67202      4.98746        -0.513797      0.475070     -0.451023
O      13.50457      5.86989      4.89052        -0.675518     -0.109908      0.969248
O       1.83654      5.78699      9.29686         0.079915     -0.028738     -0.371547
O      13.38409      5.68419      9.27769         0.186426     -0.106358      0.492046
O       1.92164      9.55105      0.58403        -0.210315     -0.052902     -2.199404
O       2.12149      9.57544     13.70050        -0.471617      0.022324      0.184409
O      13.50799      9.58656      0.59791         0.286781      0.188761      0.880379
O      13.48162      9.66039     13.57515        -0.190067     -0.416526     -0.223703
O       1.94445      9.49681      4.91290         0.228267      0.128687      0.462796
O      13.55826      9.42910      4.96963        -0.096548      0.252556     -0.611201
O       1.85720      9.67021      9.37143         0.211206     -0.309369     -0.687173
O      13.46355      9.59945      9.30102         0.163260      0.273825     -1.040314
O       5.88494      1.92551      0.59814        -0.807992      0.120530     -0.558853
O       5.75681      1.75252     13.59115        -0.255556      0.667692      0.105629
O       5.66301     13.46967      0.55410        -0.023529      0.064572      0.471721
O       5.78501     13.33709     13.55910        -0.118750      0.135142      0.624074
O       5.71623      2.04476      4.92098        -0.101161     -0.608527      0.704044
O       5.64083     13.48253      4.83750         0.308359     -0.163541     -0.366437
O       5.66691      1.86197      9.41900        -0.208228      0.122331      0.734880
O       5.78567     13.27513      9.35011        -0.201684      0.546765      0.572304
O       5.82773      5.71461      0.57308        -0.519252     -0.218938     -0.316387
O       5.86217      5.66234     13.58331        -0.476071      0.680071     -0.151755
O       5.76611      5.71719      4.97806        -0.297766     -0.135949      0.282964
O       5.72463      5.70944      9.28057        -0.050182      0.218981      0.006821
O       5.78867      9.54846      0.50516         0.236756      0.104423     -0.236182
O       5.81388      9.58048     13.70673         0.095469     -0.017594     -0.180077
O       5.85075      9.72935      4.80362        -0.381028     -0.514410     -0.361442
O       5.79041      9.46822      9.21072        -0.290947      0.471343      1.038844
O       9.70064      1.94792      0.48916        -0.521771     -0.065871      0.709687
O       9.40089      1.96938     13.55872         0.799600     -0.306002      0.806662
O       9.55641     13.36653      0.61657         0.251347      0.203692     -0.857490
O       9.71237     13.41170     13.68806        -0.471520     -0.118986     -0.000793
O       9.42054      2.00013      4.99615         0.665810     -0.458143      0.547127
O       9.71914     13.52642      4.84506        -0.710085     -0.295002      1.252663
O       9.54478      1.85886      9.30298        -0.133191      0.065864      0.905514
O       9.53623     13.44667      9.32740         0.216636     -0.242713     -0.028342
O       9.63675      5.71872      0.56383        -0.314633      0.301183      0.308846
O       9.58874      5.72938     13.64639         0.266049      0.274091     -0.547451
O       9.47285      5.64755      5.03586         0.344165      0.507051      0.412381
O       9.65684      5.73764      9.14993        -0.046856     -0.046588      1.646230
O       9.58600      9.67789      0.65090         0.074623     -0.115502     -0.691247
O       9.62366      9.51756     13.66188        -0.133899      0.511589      0.555855
O       9.62980      9.54099      4.91512        -0.165886      0.075535      0.544439
O       9.57095      9.52986      9.14093         0.164440      0.308382     -0.439760
O       3.75869      1.94137      2.69381         0.252329     -0.538257     -0.016924
O       3.83194      1.92862     15.75006        -0.273063      0.158457      0.682358
O       3.83719     13.48085      2.75017        -1.124049      0.060948     -0.232253
O       3.82091     13.51223     15.86478        -0.136598     -0.230325     -0.392511
O      15.24510      1.97540      2.75265         0.506829     -0.646435     -0.201788
O       0.01343      1.97534     15.83168        -1.187445     -0.210935      0.344759
O       0.00388     13.40806      2.65878        -0.324408     -0.162807     -0.059943
O      15.28437     13.55508     15.77694         0.884574     -0.594843      0.128571
O       3.75544      1.82652      7.13643        -0.207412      0.322700     -0.242155
O       3.76398     13.49539      7.06296         0.432840     -0.554119     -0.112399
O      15.28721      1.83267      7.12407        -0.469998      0.391322     -0.117485
O      15.30456     13.35973      7.07467        -0.462282      0.145552      0.239071
O       3.69085      1.93113     11.55566         0.805306     -0.065352     -0.146766
O       3.85998     13.47388     11.49665        -0.537831     -0.499630     -0.088567
O      15.28410      1.75702     11.50732         0.204552      0.522836     -0.237476
O      15.34658     13.40133     11.46607         0.358804     -0.301030      0.184486
O       3.72870      5.77942      2.76693         1.130904     -0.222535     -0.186705
O       3.82370      5.70137     15.71095        -0.046562      0.052000      0.550513
O      15.33700      5.73603      2.87424        -0.021821     -0.283840     -0.303717
O      15.24690      5.79820     15.78658         1.131647      0.362115      0.194542
O       3.82484      5.70313      7.20280        -0.533781      0.385117      0.037506
O      15.27775      5.74347      7.10692         0.611549      0.113687      0.122015
O       3.80737      5.65487     11.51856         0.151771      0.371819     -0.457903
O       0.03944      5.71467     11.48829        -1.092946      0.023375      0.064236
O       3.85940      9.54464      2.64958         0.517713     -0.249564      0.414110
O       3.89924      9.66550     15.88454        -0.935381     -0.119258      0.158944
O       0.14797      9.61103      2.80918        -2.212443      0.347261     -0.027364
O      15.34133      9.52411     15.66146         0.539851      0.143528      0.636836
O       3.85530      9.58407      7.12666         0.332653     -0.328363     -0.339154
O       0.00793      9.50107      7.14242        -0.120628      0.265510     -0.158692
O       3.86057      9.55244     11.46663         0.347813     -0.456210     -0.118375
O       0.00975      9.66702     11.55659         0.888774     -0.697509     -0.031363
O       7.61070      1.97424      2.72205         1.356873     -0.281600      0.175053
O       7.64435      2.01081     15.81338         0.839521     -0.452029     -0.030938
O       7.69484     13.39275      2.73196        -0.791696      0.018563      0.196514
O       7.59650     13.39681     15.89144         0.860194      0.245946     -0.366382
O       7.54709      1.85739      7.08320         1.206852      0.091479      0.435628
O       7.59029     13.42215      7.12696         0.243592     -0.397586     -0.955286
O       7.60315      1.90500     11.49382         0.856651     -0.607953      0.089241
O       7.74032     13.50224     11.51076        -0.688763     -0.027522      0.245469
O       7.71746      5.67842      2.78905        -1.517911     -0.010937     -0.071177
O       7.64444      5.75341     15.82014         0.337207      0.489611     -0.131106
O       7.61705      5.66282      7.09109         1.055643     -0.144139      0.583750
O       7.74217      5.85383     11.46903        -0.424820      0.124693     -0.428329
O       7.65963      9.73552      2.75968         0.204515      0.084763     -0.175807
O       7.71252      9.58001     15.86264         0.029537      0.035034      0.010353
O       7.62239      9.61918      7.01333         1.192528     -0.204835     -0.010660
O       7.80589      9.40239     11.36740        -1.574661      0.353617      0.230129
O      11.51695      1.97988      2.67464        -1.552109     -0.195498      0.349568
O      11.47890      2.00675     15.86361         0.036816     -0.778703     -0.564535
O      11.46911     13.43589      2.77264         0.671998      0.118081     -0.128917
O      11.45835     13.54037     15.81960         0.885068     -0.442616      0.072127
O      11.40638      1.76223      7.15247         0.948642      0.215646     -0.479484
O      11.45088     13.36527      7.10515         0.682437      0.402322     -0.039061
O      11.50753      2.09230     11.53189         0.173405     -1.119249     -0.450421
O      11.48122     13.18474     11.48816         0.857667      0.896479     -0.190731
O      11.37642      5.76628      2.82363         1.194947      0.274575      0.404219
O      11.59456      5.69234     15.88224        -1.271870      0.787776     -0.331874
O      11.49172      5.61040      7.03200        -0.355499      0.610810      0.177300
O      11.51783      5.64529     11.48523         0.444872     -0.122387     -0.117689
O      11.54838      9.69700      2.74045         0.819270     -0.956440      0.126073
O      11.55630      9.57291     15.76764        -0.302325      0.424565      0.310815
O      11.51006      9.54173      7.00949        -0.109066      0.276235      0.298618
O      11.53487      9.60895     11.34825         0.186639      0.267172      0.293565
O       1.83654      3.73378      2.65697         0.079625      1.274458      0.364952
O       1.91445      3.89887     15.81572         0.078364     -0.129359      0.393871
O       1.85549     15.28084      2.64768         0.188290      0.383410      0.067016
O       1.85227      0.12295     15.86375         0.382473     -2.416930      0.069329
O      13.35611      3.80262      2.84156         0.074483      0.714486      0.095097
O      13.52394      3.86961     15.74660        -0.600353     -0.303466      0.101156
O      13.36284      0.01292      2.67305         0.057058     -0.535560     -0.218899
O      13.44621     15.32967     15.79035        -0.490712     -0.300914      0.612045
O       1.84834      3.81910      7.08731        -0.170247     -0.258884      0.091829
O       1.80004      0.02831      7.04444         0.019182     -1.123844      0.371034
O      13.38584      3.78638      6.94388         0.035204     -0.341708      0.396084
O      13.40829     15.23700      7.10849        -0.221779      0.717665      0.056662
O       1.81524      3.81009     11.34431         0.079015     -0.214158      0.607222
O       1.84108     15.30512     11.41775         0.448572      0.026415      0.225880
O      13.51951      3.72612     11.45913         0.116028      1.155452      0.019278
O      13.39572     15.26442     11.33688        -0.531973      0.712328      0.316039
O       1.85808      7.61446      2.64359         0.150920      0.466728      0.510543
O       1.90673      7.66989     15.71531         0.293286      0.277559      0.659571
O      13.53018      7.71970      2.70013        -0.339490      0.205361      0.219726
O      13.34470      7.69267     15.78800         0.320241     -0.469879     -0.016718
O       1.89211      7.69288      7.14894         0.217699     -0.678120     -0.097312
O      13.31702      7.65422      7.21084         0.428872     -0.391033     -0.327763
O       1.82443      7.63708     11.51032         0.728215      0.455563     -0.084869
O      13.47433      7.61163     11.46657         0.019687      0.210229     -0.130283
O       1.95452     11.49544      2.52560         0.212890      0.584149      0.728701
O       1.83579     11.54988     15.64296        -0.002503      0.373864      0.694224
O      13.42526     11.59388      2.84620         0.436863     -1.593314     -0.206550
O      13.50185     11.50488     15.75172        -0.372032      0.203466      0.107749
O       1.87587     11.48096      6.99594         0.143517     -0.011261      0.385833
O      13.41500     11.48637      6.87970        -0.059077     -0.570030      0.865093
O       2.03938     11.42143     11.46899        -0.295857      1.770621      0.597004
O      13.56034     11.43624     11.46060        -0.537878      0.907103      0.310867
O       5.68358      3.82898      2.78963        -0.096524      0.585448     -0.294177
O       5.81285      3.79181     15.67365        -0.733072      0.689309      0.672070
O       5.80404      0.02853      2.80793        -0.451849     -0.318467     -0.172191
O       5.86079      0.03442     15.70133        -0.421549     -1.085497      0.477862
O       5.59664      3.73565      7.16684         0.437942      0.648254      0.250633
O       5.66024     15.32313      7.09209         0.455625     -0.114588     -0.260693
O       5.87077      3.85626     11.45793        -0.718121     -0.003527      0.139773
O       5.68994     15.35088     11.50774         0.171364     -0.182559      0.093393
O       5.91803      7.59416      2.65740        -0.594112      0.866042      0.211581
O       5.63579      7.64026     15.80097         0.642646      0.109426      0.007854
O       5.82751      7.60441      7.08333        -0.583103      0.870377     -0.242046
O       5.74336      7.66384     11.39926        -0.372153     -0.253313      0.245116
O       5.65661     11.54459      2.63001         0.186025     -0.166996      0.189232
O       5.79405     11.52665     15.79744        -0.374078     -0.065954      0.150075
O       5.72158     11.53847      6.94694        -0.167489     -0.284044      0.099527
O       5.77654     11.46164     11.41202         0.318945     -0.488580      0.425134
O       9.52374      3.82231      2.73044         0.500244     -0.615182      0.139917
O       9.60762      3.89669     15.74034        -0.186971     -0.570888     -0.093962
O       9.58613      0.03832      2.73316        -0.091010      0.286949     -0.163431
O       9.51945      0.04202     15.86888         0.346146     -0.100931     -0.405467
O       9.53159      3.75940      7.27875         0.058491     -0.109629     -0.714665
O       9.44200     15.24062      7.14386         0.647108      0.972867     -0.323130
O       9.51034      3.83072     11.42728         0.057180      0.343968      0.102021
O       9.81300      0.02641     11.45210        -0.635962     -0.547593     -0.022984
O       9.42527      7.75472      2.72925         0.730051     -0.753282      0.159812
O       9.62769      7.68580     15.73434         0.161323     -0.016871      0.719483
O       9.57409      7.65683      7.24294        -0.136191      0.136665     -1.151251
O       9.82862      7.65689     11.40467        -0.813193     -0.087311     -0.561020
O       9.68617     11.51447      2.79189        -0.624978      0.455978      0.288013
O       9.60005     11.54758     15.94681        -0.105065     -0.266265     -0.619160
O       9.59770     11.54494      6.97592        -0.407045     -1.060554      0.237903
O       9.50535     11.46342     11.41288         0.134992     -0.439891      0.174842
