  # total energy = -7881.49980343 
CRSYTAL
PRIMVEC
    15.3600000000000000    0.0000000000000000    0.0000000000000000
     0.0000000000000000   15.3600000000000000    0.0000000000000000
     0.0000000000000000    0.0000000000000000    17.440000000000000
PRESSURE
1.69684 1.67502 4.39589 -0.189718 -0.361312 -0.069732
PRIMCOORD
320 1
Pb       3.84160      3.85787      4.24586        -0.065933     -0.433541      0.225365
Pb       3.76745      3.89905     17.36769        -0.214102     -0.217278     -0.372858
Pb       3.88898     15.35495      4.23630        -0.671132      0.081260      0.200468
Pb       3.97526      0.00803      0.02578        -0.590480     -0.141353     -0.267093
Pb      15.26725      3.93391      4.30598         0.033168     -0.612084     -0.589934
Pb      15.20875      3.71425     17.35981         0.066431      0.797888     -0.096346
Pb      15.26159     15.34089      4.36962         0.619303     -0.049655     -0.422460
Pb       0.15545      0.03358     17.38820        -0.666287     -0.227475      0.250708
Pb       3.98105      3.88840      8.58102        -0.755200     -0.596321      0.198114
Pb       3.78984     15.27211      8.71547        -0.080824      0.221543     -0.154822
Pb       0.16105      3.71181      8.67609         0.070715     -0.150289      0.005714
Pb       0.16482     15.29303      8.58481        -0.406107      0.105042      1.018803
Pb       3.90864      3.94443     13.08259        -0.573546     -0.000904      0.245517
Pb       4.02738      0.01104     13.22181        -0.656547     -0.113480     -0.294291
Pb      15.25806      3.89603     12.93319         0.207356     -0.908409      0.925399
Pb      15.31114      0.01483     13.01281         0.586966      0.162916      0.174364
Pb       3.77682      7.65697      4.33024         0.197506     -0.320909     -0.118346
Pb       3.87329      7.78047     17.43238        -0.136790     -0.524205      0.126585
Pb      15.18203      7.46211      4.30241         0.557411      0.943217     -0.072119
Pb       0.21537      7.63409     17.42445        -1.314419     -0.168106      0.084074
Pb       3.77369      7.60720      8.64255         0.516526     -0.045004      0.163413
Pb      15.29497      7.71535      8.63470         0.456255      0.205813      0.043315
Pb       3.84552      7.82126     13.09301        -0.206681     -0.881537     -0.428797
Pb      15.29033      7.74896     12.92229         0.475585     -0.569349      0.221771
Pb       3.87683     11.40453      4.37673        -0.060361      0.556476     -0.077873
Pb       3.69206     11.45705      0.01365         0.136082      0.511201     -0.436732
Pb      15.32671     11.38895      4.31478        -0.049818      0.108734      0.052217
Pb       0.09005     11.38647      0.10131        -0.353268      0.572850     -1.004682
Pb       3.75660     11.47575      8.66184         0.006194      0.258327      0.053538
Pb       0.10090     11.64485      8.60544        -0.129526     -0.859007      0.239715
Pb       3.74001     11.58731     13.01232        -0.057725     -0.125479      0.159469
Pb      15.11730     11.44030     12.96619         1.253093      0.282917      0.547363
Pb       7.56879      3.95452      4.23563         0.409799     -0.083891      0.453953
Pb       7.69551      3.82146     17.38444        -0.125629     -0.071350     -0.452713
Pb       7.55132     15.32251      4.22807         0.401547      0.003522      0.641558
Pb       7.82420     15.25166      0.01693        -0.364114      0.488235     -0.340616
Pb       7.70594      3.79951      8.65296        -0.240064     -0.046009      0.419846
Pb       7.70113      0.08758      8.69130        -0.109782     -0.613276     -0.209007
Pb       7.51105      3.66214     13.01341         0.308282      0.712490     -0.019461
Pb       7.72536     15.08015     13.13533        -1.241202      0.759438      0.149138
Pb       7.61897      7.79453      4.37320        -0.007775     -0.544492     -0.273410
Pb       7.75074      7.52148     17.36176        -0.299018      0.614164      0.457046
Pb       7.66249      7.58589      8.71984        -0.221064     -0.026679      0.056249
Pb       7.77244      7.63597     13.09100        -0.549451      0.156683     -0.580822
Pb       7.65536     11.49370      4.27854         0.034162      0.255266     -0.117215
Pb       7.68206     11.44476     17.31794         0.179855      0.202561      0.459371
Pb       7.75885     11.46009      8.79951        -0.546946      0.340975     -0.212627
Pb       7.57704     11.53256     13.06677        -0.355933     -0.710839      0.037292
Pb      11.59010      3.92276      4.36143        -0.761708     -0.221195     -0.020971
Pb      11.29474      3.78256     17.34940         0.701999      0.163255     -0.673335
Pb      11.52327      0.13724      4.32452        -0.557910     -0.409595      0.131303
Pb      11.68155      0.05827     17.34718        -0.294542     -0.060713     -0.388154
Pb      11.69161      3.69097      8.67659        -1.040605     -0.053821      0.152065
Pb      11.51868      0.00198      8.65634        -0.504351     -0.313243     -0.289752
Pb      11.41521      3.90938     12.87166         0.202889     -0.593023      1.080646
Pb      11.42492     15.30464     13.11474         0.700576      0.472859     -0.474802
Pb      11.53547      7.66454      4.39861        -0.178615      0.394166      0.033941
Pb      11.42523      7.68359     17.32534         0.673427      0.023477     -0.160246
Pb      11.48137      7.59502      8.66526        -0.224633      0.685848     -0.012790
Pb      11.61990      7.67876     13.01684        -0.309566      0.304882     -0.351330
Pb      11.39438     11.56594      4.35979         0.404661     -0.245163     -0.020052
Pb      11.62817     11.56892     17.40191        -0.249552     -0.321802      0.250979
Pb      11.35662     11.52924      8.75305         0.759195     -0.054023     -0.697000
Pb      11.41151     11.59219     13.06057         0.361616     -1.156872     -0.019695
Ti       1.85234      1.93462      2.29620        -0.099448     -0.608624      0.128453
Ti       1.88489      2.00571     15.36486        -0.160152     -0.507687      2.492941
Ti       1.78839     13.39041      2.39845         0.469701      0.274944      0.431629
Ti       1.90951     13.54859     15.42477        -0.657032     -0.913451      0.368136
Ti      13.39619      1.91179      2.33062         0.262582      0.253526      0.401070
Ti      13.41711      1.97070     15.24382        -0.455628      0.141952      0.749997
Ti      13.34578     13.47779      2.38409         0.603544     -0.663768      1.537705
Ti      13.46843     13.40371     15.35986         0.385320     -0.073140      2.108856
Ti       1.87296      1.84330      6.53172         1.203351      0.205770      2.522857
Ti       1.87674     13.35676      6.51172         0.959496      0.214389      1.018214
Ti      13.46679      1.83088      6.68655        -0.471078      0.208117      0.301516
Ti      13.38151     13.39600      6.62776        -0.763630     -0.688793      1.491444
Ti       1.93208      1.94896     11.08756        -1.013283     -1.273055      0.779899
Ti       1.85332     13.44051     11.10306         0.604466      0.080458      0.531910
Ti      13.32471      1.76994     11.05506         1.209923      0.696682      2.492551
Ti      13.38469     13.39596     11.05855         1.124856      0.292605      2.113190
Ti       1.89040      5.69413      2.31065        -0.696656      0.581853      0.699726
Ti       1.88422      5.81775     15.39213        -0.127143     -1.084518     -0.663667
Ti      13.30289      5.75898      2.20641         0.357173     -0.612991     -0.678559
Ti      13.40561      5.77176     15.33619         0.097944     -0.050242      2.102146
Ti       1.78845      5.71098      6.58479         1.795625     -0.570993      1.403582
Ti      13.42689      5.70048      6.78268        -0.090496      0.000830      0.320468
Ti       1.93139      5.69512     10.99484         0.578459      0.519987      1.631600
Ti      13.44000      5.68363     10.91625         0.104144      0.086299      3.017357
Ti       1.95893      9.54003      2.41977        -0.482056     -0.482334      1.986759
Ti       1.92624      9.59820     15.31586        -0.686161      0.147573      0.712632
Ti      13.42830      9.60982      2.30669        -0.149610      0.169887      1.422194
Ti      13.44136      9.51400     15.39770         0.071548      0.565713      1.727508
Ti       1.99040      9.44066      6.65971        -1.031599      1.433249      0.228229
Ti      13.43604      9.57157      6.73603        -0.414650      0.309155      1.142341
Ti       1.96338      9.55478     11.00555        -0.139002      0.852290     -0.120019
Ti      13.46391      9.59206     10.90938        -1.625944     -0.097286      1.855414
Ti       5.77194      1.92359      2.25460        -1.202674     -0.140608      0.369077
Ti       5.69702      1.92868     15.51072         0.852087     -0.725671     -0.862934
Ti       5.64022     13.39346      2.31839         0.115123     -0.075728      0.079688
Ti       5.72063     13.37207     15.50691        -0.041635      0.466057      0.046136
Ti       5.65079      1.84382      6.65959        -0.110943     -0.025846      0.441197
Ti       5.70656     13.39981      6.69024        -0.164578     -0.046228      0.699136
Ti       5.66710      1.82770     11.09877        -0.626391      0.337749      0.010564
Ti       5.66849     13.35487     11.03371         0.131505      0.623529      0.862754
Ti       5.67073      5.74011      2.17105         0.692137      0.537311      1.466102
Ti       5.74028      5.78944     15.44608        -0.662235     -0.873830      0.001846
Ti       5.72313      5.72609      6.62333        -0.249385      0.189184      0.303518
Ti       5.69749      5.75896     11.05722         0.417889     -0.235930      1.550585
Ti       5.78957      9.57973      2.28048        -0.325150     -0.370220      1.111232
Ti       5.78144      9.51563     15.39981         0.109502      0.889938      0.719806
Ti       5.79601      9.59741      6.71034        -0.641312     -0.246208      0.869412
Ti       5.72936      9.54048     10.97933         0.464517      0.197771      1.158651
Ti       9.52366      2.00060      2.38518         0.052935     -0.179585      0.678911
Ti       9.52335      1.91412     15.24864        -0.162533      0.320167      1.999361
Ti       9.53565     13.48582      2.34205         0.166473     -0.452553      1.119456
Ti       9.62415     13.43199     15.40341        -0.111341     -0.044507      1.987873
Ti       9.52309      1.91994      6.67404         0.209079     -0.530107      1.241952
Ti       9.45862     13.38394      6.66026         0.789188      1.188734      1.755689
Ti       9.44637      1.77266     11.09670         1.068545      1.524687      0.135050
Ti       9.58901     13.32230     11.10251        -1.247794      0.789221     -1.632803
Ti       9.55200      5.85537      2.36434        -0.474546     -1.103354      0.592529
Ti       9.57870      5.87351     15.25696         0.202169     -0.783376      0.439696
Ti       9.59070      5.70811      6.76731        -0.647943     -0.736849     -0.370970
Ti       9.59425      5.77011     10.99134        -1.006022     -0.723804      1.478158
Ti       9.64994      9.57773      2.32240        -0.553251      0.660578      1.635534
Ti       9.57244      9.67068     15.39074         1.010677     -0.613165     -0.231012
Ti       9.49518      9.58397      6.64180         1.696229     -0.590309      0.506744
Ti       9.52433      9.55315     11.08659         1.137030     -0.723779      1.737114
O       1.86362      1.89559      0.50911        -0.158961      0.208046      0.836680
O       1.68287      1.88237     13.72271         0.577443      0.074805     -2.519760
O       1.92842     13.41225      0.64910        -0.294138     -0.037147     -0.725494
O       1.95652     13.48305     13.70701        -0.278202     -0.103488     -0.511442
O      13.37888      1.91142      0.60381        -0.172365     -0.086626     -1.004203
O      13.36031      1.96725     13.51150        -0.160678     -0.479649     -0.081102
O      13.30138     13.36168      0.68030         0.112568      0.280914     -1.081810
O      13.39000     13.47328     13.64640        -0.191790     -0.681319     -1.008160
O       1.87911      1.83133      4.84805        -0.085828      0.210032     -1.768699
O       1.85737     13.36138      4.78201         0.116374     -0.124502     -0.273673
O      13.44062      1.82091      4.94154         0.029704      0.054760     -0.102658
O      13.28856     13.47796      4.92243         0.381418      0.095418     -0.710824
O       1.85672      1.78443      9.35019         0.108677      0.422684     -0.515532
O       2.03850     13.44994      9.34176        -0.690865     -0.151462     -0.393448
O      13.39731      1.85187      9.37133         0.036165      0.109985     -2.773293
O      13.38029     13.28150      9.38931        -0.126341      0.006777     -2.164402
O       1.79627      5.74046      0.60301         0.427482     -0.141348     -1.793736
O       2.04091      5.89569     13.65312        -0.608891     -0.230828      0.460431
O      13.22578      5.78822      0.42922         0.096002     -0.283287      1.613505
O      13.41815      5.70611     13.63263         0.016107      0.626152     -1.764180
O       1.91956      5.81878      4.87082        -0.318905     -0.374909     -0.798556
O      13.38184      5.74706      5.03760        -0.048176      0.068200     -1.058219
O       1.97706      5.56711      9.26957        -0.269871      0.335226     -0.957576
O      13.49162      5.60681      9.22755         0.148408      0.057009     -1.252668
O       1.92479      9.52626      0.72797         0.071801     -0.029928     -2.810324
O       1.91167      9.56079     13.57948        -0.071667     -0.144624     -0.462024
O      13.37606      9.69965      0.58218         0.228684     -0.302075      0.424508
O      13.48510      9.47015     13.66961        -0.185479      0.121983     -1.327142
O       1.98314      9.41589      4.90390         0.095039      0.220794     -0.088959
O      13.43832      9.41042      5.04112         0.081668     -0.007185     -1.624804
O       1.99701      9.69206      9.24580        -0.212754     -0.556738     -0.161915
O      13.45051      9.69799      9.22002         0.038822     -0.144153     -1.544231
O       5.70830      1.83996      0.50620         0.234876      0.284867     -0.470421
O       5.78086      1.82435     13.72643        -0.299949      0.304214     -0.287952
O       5.55756     13.44795      0.56318         0.483999     -0.285739     -0.255889
O       5.75654     13.29078     13.75483        -0.059188      0.286374     -0.406824
O       5.62177      1.80227      4.93132        -0.028022      0.010577     -0.830237
O       5.59839     13.28076      4.93798         0.431566      0.511166     -0.245563
O       5.57139      1.94452      9.35852         0.282061     -0.365389     -0.131963
O       5.69779     13.44250      9.31622         0.036543     -0.122498     -0.612575
O       5.77243      5.74981      0.45441        -0.364702     -0.267607     -0.680792
O       5.67202      5.72531     13.70599         0.133664      0.249943     -0.754896
O       5.63087      5.82246      4.88285         0.513589     -0.298165     -0.672137
O       5.62682      5.58281      9.35870         0.117468      0.446124     -1.732039
O       5.77420      9.50246      0.56567        -0.096062      0.592221     -0.767138
O       5.73703      9.63833     13.68357        -0.098405     -0.388450     -0.536526
O       5.75554      9.60217      4.96685         0.149635     -0.147216     -0.858981
O       5.82809      9.44438      9.25828        -0.107838      0.602556     -0.704385
O       9.35964      2.03720      0.64028         0.637331      0.047844     -0.129100
O       9.52461      1.91838     13.53701         0.035057     -0.585490     -1.118657
O       9.44796     13.44633      0.63770         0.503165      0.070070     -1.572941
O       9.52981     13.25840     13.68193         0.417585      0.609845     -1.575492
O       9.56438      1.79148      4.98400        -0.121289      0.490925     -1.633681
O       9.40209     13.34381      4.95974         0.325863      0.088614     -1.387351
O       9.61619      1.86680      9.35327        -0.451497     -0.278327     -0.308064
O       9.39179     13.47676      9.31530         0.866973     -0.489562      0.893462
O       9.48502      5.76747      0.62537         0.617617     -0.043399     -1.331444
O       9.48180      6.04350     13.52901         0.594761     -0.590468      0.135797
O       9.47310      5.51542      4.99190         0.398028      0.961373      1.033976
O       9.51946      5.74287      9.27154         0.235448     -0.039797     -0.889192
O       9.55729      9.68003      0.63943         0.041835     -0.463367     -2.023439
O       9.58533      9.50910     13.64777         0.172979      0.312754     -0.614039
O       9.55767      9.59102      4.89240        -0.496930     -0.191388      0.157041
O       9.43320      9.60762      9.40727         0.041317     -0.024630     -3.230632
O       3.79245      1.95988      2.68153        -0.121465     -0.326914     -0.046730
O       3.80243      1.90150     15.79215        -0.296851      0.342103      0.120167
O       3.75986     13.34053      2.74103         0.463685      0.172351      0.131393
O       3.76141     13.42432     15.84535         0.778440     -0.207731      0.232627
O      15.25923      1.97993      2.69048         0.659028     -0.174658      0.299612
O      15.27662      2.01698     15.74812        -0.649235     -0.741007      0.283470
O      15.28364     13.36069      2.79253        -0.392051      0.146375      0.047007
O      15.34766     13.39108     15.94221        -0.042341      0.056874     -0.332535
O       3.75920      1.83992      7.12705        -0.146136      0.190141     -0.442737
O       3.77950     13.37556      7.15805        -0.094057     -0.055859     -0.656662
O       0.00866      1.81876      7.14482        -0.702696      0.222160     -0.340535
O       0.04852     13.43665      7.07803        -0.935714     -0.497806     -0.466075
O       3.76348      1.80890     11.61092         0.574312     -0.159498     -0.013260
O       3.80085     13.43936     11.56714         0.094396      0.018464     -0.225126
O      15.32881      1.95749     11.46335        -0.222875     -0.035419     -0.026825
O      15.32920     13.33285     11.53290        -0.819124     -0.110843     -0.352114
O       3.75492      5.59857      2.70529         1.286227      0.262695     -0.459744
O       3.82940      5.83737     15.75017        -0.692505     -0.812451      0.859449
O      15.31747      5.73157      2.67496        -1.498786     -0.059412      0.254178
O      15.25641      5.73219     15.79513         0.837205      0.369521      0.041730
O       3.81096      5.85454      7.02125        -0.160020     -0.871183      0.122730
O      15.34822      5.72736      7.06135        -0.001713      0.295350      0.198719
O       3.76707      5.75092     11.60437         0.614562      0.389444     -0.558008
O       0.08033      5.71959     11.58855        -1.443036      0.245695     -1.452163
O       3.86311      9.64684      2.81894         0.246853     -0.269592     -0.397883
O       3.84484      9.50064     15.81325        -0.342272      0.286136     -0.004206
O       0.02257      9.50702      2.84980        -1.439886     -0.195420     -0.483060
O       0.01566      9.51980     15.84903         0.313384      0.248437     -0.006017
O       3.88160      9.57844      7.09077        -0.253980     -0.188617     -0.020479
O       0.05031      9.56682      7.05502        -0.434098     -0.379151      0.404202
O       3.82806      9.65687     11.43893         0.110767     -0.382376     -0.053400
O      15.30959      9.60874     11.34966         0.239982     -0.042162      0.145782
O       7.53983      1.88389      2.81848         1.157041      0.382664     -0.138409
O       7.61907      1.91610     15.78600         1.502114     -0.049986      0.148463
O       7.68034     13.41148      2.71082        -1.203635     -0.015552      0.227118
O       7.69752     13.45707     15.84836         0.135375     -0.248776      0.064683
O       7.60205      1.95592      7.06105         0.158185     -0.397729      0.248162
O       7.64414     13.50211      7.18721        -0.525474     -0.503282     -0.365395
O       7.54515      1.86203     11.45574         0.270304      0.331632     -0.083369
O       7.69746     13.34356     11.56209        -0.796157     -0.098277     -0.140164
O       7.67097      5.70547      2.54990        -1.491622      0.345788      0.867846
O       7.61603      5.73296     15.73282         1.507411      0.450026      0.276653
O       7.63592      5.68119      7.19364         0.069066     -0.176940     -0.389956
O       7.62199      5.70467     11.49265        -0.350627      0.176252     -0.334740
O       7.63075      9.47255      2.78452         0.175859      0.551288     -0.170548
O       7.71928      9.50310     15.72545        -1.019333      0.544805      0.501004
O       7.66255      9.59584      7.11871         0.332380     -0.183144     -0.050638
O       7.70020      9.62234     11.52448        -2.057637     -0.107070      0.061086
O      11.45717      1.97239      2.72626        -0.330010     -0.607408      0.076511
O      11.48777      1.95562     15.83457        -0.233000     -0.653823     -0.262301
O      11.48190     13.44021      2.86596        -0.590514      0.356626     -0.340173
O      11.49389     13.36255     15.90669         0.255454      0.646674     -0.623165
O      11.50858      1.97555      7.02974         0.552926     -0.763937      0.358982
O      11.45573     13.41715      7.13439        -0.138283     -0.001712      0.004005
O      11.46383      1.63837     11.39852        -0.758083      0.470968      0.393600
O      11.48431     13.43050     11.52987        -0.826588      0.243051     -0.067090
O      11.41529      5.73419      2.80446         1.125200     -0.123978     -0.159402
O      11.44937      5.86984     15.64301        -0.804368      0.054594      0.288245
O      11.58003      5.66765      7.25893        -1.501748      0.287631     -0.496896
O      11.54588      5.77073     11.50596        -0.277077      0.286524     -1.031165
O      11.48896      9.58373      2.86269         1.081138     -0.208094     -0.450618
O      11.52021      9.53189     15.79938        -0.310646      0.373149     -0.010965
O      11.49782      9.41509      6.98575        -0.992335      0.234642      0.732479
O      11.45835      9.55159     11.32011         0.968081     -0.073627      0.546323
O       1.77197      3.81059      2.72916         0.426471     -0.522201      0.298105
O       1.71073      3.84149     15.88622         1.471442      0.779202     -0.266408
O       1.71499     15.31695      2.78712         0.662642      0.760766     -0.457513
O       1.85794      0.06160     15.90426         0.169433     -0.384433     -0.493098
O      13.35364      3.81887      2.77371         0.114527      0.975507     -0.089798
O      13.26360      3.87086     15.69507         0.313922     -0.536696      0.373553
O      13.46541      0.01791      2.85291        -0.612046     -0.117246     -0.572402
O      13.40263     15.29356     15.67178        -0.273762      0.993921      0.490848
O       1.84540      3.76075      6.96411         0.003596      0.781786     -0.071018
O       1.85414     15.31542      7.00989         0.434418     -0.588772     -0.293899
O      13.45177      3.79721      7.01359         0.394109     -0.944207      0.449663
O      13.41271     15.22709      7.17375         0.074147      1.461788     -0.276741
O       1.95440      3.82198     11.45419        -0.052130     -0.065561      0.026625
O       1.76777     15.28567     11.54717         0.369711      0.680192     -0.318005
O      13.28705      3.77225     11.52345         0.530675      0.705160     -1.160273
O      13.48912     15.27596     11.50524        -0.490763     -0.098552     -0.223395
O       1.90434      7.55834      2.72588         0.359715      0.965948      0.194619
O       1.87952      7.62695     15.86026         0.243011      1.186448      0.002368
O      13.28897      7.56951      2.81959         0.503896      0.944807     -0.624791
O      13.41566      7.70466     15.91128        -0.081741     -0.392292     -0.373825
O       1.95530      7.62310      7.14297        -0.608894     -0.334132     -0.078289
O      13.39887      7.59790      7.24882         0.512223      0.297302     -0.012613
O       1.93794      7.67144     11.36636        -0.231793      0.160862     -0.104347
O      13.44725      7.62804     11.30234         0.187696      0.018892     -0.125907
O       1.81605     11.43039      2.61582         0.052786      0.369775      0.739143
O       1.87293     11.43312     15.81438         0.398871      0.257342      0.331573
O      13.45326     11.52597      2.89805        -0.501718     -1.119231     -0.597677
O      13.39663     11.48807     15.90699         0.420292     -0.035259     -0.652929
O       1.87632     11.44149      7.04475         0.429255      0.528530     -0.285591
O      13.29456     11.48218      7.00577         0.620305      0.177639      0.233194
O       1.86878     11.49793     11.37557         0.169278     -0.268784      0.580579
O      13.29581     11.48354     11.58082         0.136920     -0.289704     -0.522304
O       5.76872      3.81668      2.61155        -0.406086      0.343861      0.068855
O       5.77494      3.80257     15.81305        -0.558867      0.748143      0.364971
O       5.69666     15.33127      2.71870        -0.131415     -0.191757     -0.222433
O       5.77827     15.31731     15.83118        -0.525027     -0.324972      0.294219
O       5.68577      3.77062      6.91319        -0.163577      0.764251      0.500950
O       5.61766     15.30915      7.13838         0.653961     -0.057036     -0.258607
O       5.55099      3.82913     11.44265         0.705244     -0.743637      0.491818
O       5.72614     15.24514     11.60212         0.301814      0.472467     -0.314947
O       5.62844      7.64138      2.59150         0.145101     -0.234094      0.337851
O       5.71603      7.64646     16.00651         0.542374      0.500802     -0.980358
O       5.78481      7.60750      7.08967         0.142966      0.618597      0.039648
O       5.67374      7.68839     11.37856         0.103988     -0.121842      0.262272
O       5.82606     11.55529      2.77307        -0.453871     -1.148923     -0.401740
O       5.83280     11.47384     15.84784        -0.533956     -0.399091      0.205696
O       5.80317     11.51033      7.11952        -0.123539     -0.302567      0.075688
O       5.63940     11.50235     11.48693         0.747830     -0.349379     -0.268892
O       9.55327      3.87756      2.89590        -0.192930     -0.828799     -0.581881
O       9.60903      3.82971     15.57053        -0.298461      0.617551      0.607161
O       9.39403      0.03223      2.73979         0.987830      0.271898     -0.095598
O       9.65326      0.00660     15.86133        -0.213648     -0.118713     -0.516889
O       9.57641      3.80282      7.28876         0.266323      0.150702     -0.608116
O       9.53575     15.33874      7.12357         0.272988      0.438873      0.043346
O       9.53138      3.83689     11.48230         0.145753     -0.464318     -0.322845
O       9.36161     15.32588     11.51859         0.981029     -1.220629      0.062495
O       9.56837      7.68863      2.83525         0.020801     -0.178913     -0.033342
O       9.55357      7.76915     15.82172        -0.056529     -1.553495      0.068576
O       9.47731      7.60372      7.16100         0.496926      0.333176     -0.389641
O       9.49984      7.62613     11.36473         0.150869     -0.009936      0.306136
O       9.60353     11.48019      2.70405        -0.319820      0.334815      0.457508
O       9.64489     11.53391     15.79649        -0.538275     -0.064189      0.179682
O       9.62840     11.46190      7.09377        -0.533224     -0.070832      0.179357
O       9.51076     11.45281     11.31919         0.797423      1.502763      0.771916
