  # total energy = -7879.54064747 
CRSYTAL
PRIMVEC
    15.3600000000000000    0.0000000000000000    0.0000000000000000
     0.0000000000000000   15.3600000000000000    0.0000000000000000
     0.0000000000000000    0.0000000000000000    17.440000000000000
PRESSURE
0.930368 1.38308 -0.730938 -0.260237 -0.213343 -0.045117
PRIMCOORD
320 1
Pb       3.86245      3.82321      4.28799        -0.013928     -0.172876     -0.641308
Pb       3.76282      3.88401     17.40686         0.076834     -0.441173     -0.225712
Pb       3.86743     15.34481      4.28177         0.241670     -0.250754     -0.328807
Pb       3.92563     15.30662      0.02596        -0.330685      0.527136     -0.510650
Pb      15.32684      3.89306      4.31600        -0.250124      0.006569     -0.210686
Pb      15.22935      3.72981     17.34933         0.102187      0.211099      0.240223
Pb      15.31803      0.01221      4.40099        -0.811118     -0.665896     -0.551588
Pb       0.16614      0.04884     17.37352        -0.373517     -0.209974      0.221463
Pb       3.96372      3.86130      8.63038        -0.424793     -0.452923      0.043265
Pb       3.81094     15.30247      8.64693        -0.173549      0.059453     -0.109737
Pb       0.15570      3.75332      8.71832        -0.268729      0.493801     -0.200760
Pb       0.10128     15.28944      8.64701        -0.174511     -0.174429     -0.357342
Pb       3.91205      3.92810     13.10885        -0.677565     -0.403091     -0.089709
Pb       4.00358      0.06464     13.18192        -0.514676      0.157102     -0.093219
Pb      15.30538      3.88102     12.96025         0.300959      0.324426     -0.318977
Pb      15.32631     15.34722     13.06335        -0.360084     -0.431497     -0.255774
Pb       3.77938      7.64434      4.35974        -0.223664      0.466488     -0.423823
Pb       3.89390      7.75139     17.42422        -0.249016     -0.387792     -0.598151
Pb      15.19086      7.55403      4.32253         0.625041     -0.070821      0.006121
Pb       0.17546      7.59209      0.00890        -0.889598      0.093091     -0.156090
Pb       3.75311      7.66748      8.63157        -0.199637      0.064887     -0.394727
Pb      15.30890      7.73743      8.63723         0.027561     -0.573506      0.112987
Pb       3.87575      7.76800     13.08212        -0.349062     -0.247891     -0.541144
Pb      15.26341      7.72623     12.95622         0.295688     -0.339321     -0.104406
Pb       3.91807     11.42788      4.41083        -0.618053     -0.002364     -0.660122
Pb       3.67656     11.51997      0.02478         0.607201      0.152950     -0.220060
Pb      15.28935     11.36427      4.38159         0.551157      0.699237     -0.170193
Pb       0.07414     11.41486      0.07821        -0.465668      0.342567     -0.355477
Pb       3.81869     11.45581      8.65271         0.082275      0.309740     -0.181545
Pb       0.07012     11.64192      8.64508        -0.430810      0.020934     -0.259040
Pb       3.75039     11.57039     13.05127        -0.292084     -0.371569     -0.342703
Pb      15.18154     11.46553     12.95167         0.311435     -0.009302      0.221230
Pb       7.57547      3.94172      4.23435         0.195220     -0.482934      0.182874
Pb       7.65856      3.80280      0.01893        -0.622047     -0.275810     -0.551511
Pb       7.55758     15.28579      4.32454         0.232242      0.143869     -0.349993
Pb       7.82749     15.26092      0.02419        -0.221164      0.512803     -0.538212
Pb       7.68464      3.85157      8.63938         0.105730     -0.872911     -0.164805
Pb       7.69843      0.10847      8.71613        -0.371368     -0.051209     -0.420019
Pb       7.57221      3.69439     12.99884        -0.341835      0.133132      0.161059
Pb       7.68025     15.16001     13.13483         0.273017      0.550718     -0.186371
Pb       7.65584      7.78423      4.39652         0.641479     -0.208683     -0.440403
Pb       7.68264      7.59634     17.38453         0.245106      0.239523     -0.401448
Pb       7.70670      7.54886      8.74645         0.127684      0.344901     -0.413840
Pb       7.78995      7.67046     13.13103        -0.294269      0.301338     -0.582229
Pb       7.63922     11.48056      4.32546         0.529647      0.272090     -0.218572
Pb       7.67074     11.43657     17.33527         0.225880     -0.142510      0.227875
Pb       7.71899     11.51845      8.79309        -0.074839     -0.236677     -0.957367
Pb       7.55313     11.50589     13.05577         0.849742     -0.637466     -0.449222
Pb      11.56637      3.92557      4.34868        -0.463885     -0.027416     -0.331493
Pb      11.36985      3.79363     17.38574         0.427652      0.610384      0.271858
Pb      11.55500      0.09496      4.38954        -0.370087     -0.731205     -0.098238
Pb      11.62471      0.06583     17.39661        -0.331829     -0.758213      0.605318
Pb      11.65469      3.66729      8.67894        -0.550389      0.607928      0.284502
Pb      11.52125      0.06573      8.69899         0.079144     -0.439749     -0.184713
Pb      11.43708      3.87215     12.89930         0.694462     -0.179964      0.030632
Pb      11.45804     15.33274     13.13382         0.322878     -0.108017     -0.312760
Pb      11.53745      7.65157      4.43656        -0.776628     -0.441584     -0.866071
Pb      11.44188      7.72503     17.33222         0.462231     -0.634997      0.296422
Pb      11.51196      7.63723      8.68190         0.016709     -0.435360      0.019249
Pb      11.60267      7.64298     13.10123        -0.107864      0.137508     -0.443347
Pb      11.42031     11.55920      4.34186        -0.219907      0.482261     -0.324345
Pb      11.58013     11.53957     17.41375        -0.105732      0.148471     -0.381122
Pb      11.41872     11.52821      8.71610         0.342897      0.012148     -0.228822
Pb      11.46656     11.58637     13.10415        -0.298083     -0.143518     -0.260372
Ti       1.76577      1.91247      2.40631         1.034587      0.333836     -2.242117
Ti       1.79946      1.93830     15.32948         1.343201     -0.117665      2.016674
Ti       1.86028     13.44854      2.41845         0.002129     -1.228899      0.917927
Ti       1.86188     13.41332     15.32493         0.152185      1.100211     -1.281243
Ti      13.33618      1.89916      2.34273        -0.020094     -0.551430     -0.599496
Ti      13.24328      1.90054     15.42245         0.952156     -0.036486     -2.142519
Ti      13.38814     13.36605      2.36457        -0.007121      1.180454      0.156233
Ti      13.50222     13.40759     15.42295        -0.431732     -0.232388      0.107457
Ti       1.88273      1.80955      6.46032         0.019586      0.332633      2.224257
Ti       1.96698     13.38092      6.50624        -1.106140      0.034712     -0.213227
Ti      13.43107      1.91011      6.64559         0.125747     -0.867373     -1.273828
Ti      13.30413     13.42446      6.66540         0.874665     -0.179989      0.164833
Ti       1.81950      1.82657     11.10715         0.615639      1.524784     -0.683668
Ti       1.91004     13.45222     11.16424        -1.218093     -0.449182     -1.129634
Ti      13.36049      1.87277     11.03881        -0.158232     -0.481282      0.396492
Ti      13.38379     13.39847     11.02888         0.051270      0.223045     -0.231686
Ti       1.87577      5.74894      2.34759         0.275141     -0.342303      0.607776
Ti       1.79943      5.73822     15.39907         0.430670     -0.425559     -0.833199
Ti      13.33373      5.68579      2.15778        -0.736191     -0.075354     -1.669745
Ti      13.36786      5.76205     15.36190         0.113410      0.368672      0.176236
Ti       1.93977      5.59528      6.53063        -1.801689      1.072209     -0.300440
Ti      13.38566      5.71882      6.72658         1.034807      0.432520      0.155902
Ti       1.94483      5.76818     11.00686        -0.653819     -0.254754      1.615651
Ti      13.39785      5.75833     10.99465         0.085891     -0.428551     -1.950360
Ti       1.94256      9.55891      2.34420         0.089130      0.232623      1.327220
Ti       1.90025      9.61681     15.37741         0.008054     -0.377914     -0.270216
Ti      13.44254      9.47822      2.40955        -0.138170      0.673929     -1.316904
Ti      13.53500      9.56985     15.40801        -1.127933     -0.626571     -0.532249
Ti       1.85589      9.56781      6.68928         0.192509     -0.641757     -0.530105
Ti      13.36160      9.60045      6.64850         0.676877     -0.054787      1.028820
Ti       1.90051      9.63833     10.99741        -0.861052     -0.895395      1.563515
Ti      13.28529      9.55438     10.97247         1.322471      0.059732      0.277898
Ti       5.63656      1.90732      2.28279         0.961902     -0.381912     -0.623289
Ti       5.69377      1.89879     15.39331        -0.133014      1.420882     -0.121455
Ti       5.68121     13.35827      2.19850        -0.421764      0.462503     -1.206020
Ti       5.69532     13.34693     15.46762        -0.109760      0.816156      2.441753
Ti       5.62041      1.86213      6.59093         1.051904      0.252394     -0.109509
Ti       5.72270     13.43609      6.72276         0.853127      0.004605      0.655405
Ti       5.64073      1.83748     11.02260         0.263233     -0.176098      0.763915
Ti       5.72599     13.35315     11.00767        -0.927621      0.556200     -0.936655
Ti       5.73354      5.83542      2.23345        -0.286752     -1.548939      0.223842
Ti       5.69578      5.75812     15.38675         0.687703     -0.801019      0.724482
Ti       5.71679      5.74456      6.57907         0.296798     -0.254422      0.666872
Ti       5.72759      5.69736     11.00219        -0.507440      0.473169      1.644870
Ti       5.78916      9.52590      2.31536         0.015477      0.852462     -0.167247
Ti       5.76893      9.63605     15.33704         0.287710     -1.299281      0.648417
Ti       5.80666      9.59686      6.76234         0.054497     -0.295455      0.031657
Ti       5.73054      9.53040     10.96552         0.505309      0.442528     -0.069294
Ti       9.49662      1.96183      2.46257         0.040184     -0.050874     -0.608682
Ti       9.60123      1.92210     15.27368        -1.889754     -1.567652     -0.152068
Ti       9.54219     13.52522      2.28062         0.458260     -0.739335      0.274736
Ti       9.60434     13.39383     15.44275         0.156631      0.182786      0.232816
Ti       9.54601      1.81328      6.67969        -0.784281      0.537237     -0.507474
Ti       9.52475     13.45269      6.69667        -0.117479     -0.489932     -1.270219
Ti       9.56955      1.88458     11.06474        -0.686529     -0.490915     -0.808148
Ti       9.52511     13.43776     10.95712         1.568774     -1.756329      0.144318
Ti       9.56269      5.76572      2.28446         0.177080      0.744113      0.888314
Ti       9.57471      5.69513     15.26071         0.037709      0.399189     -0.229655
Ti       9.50046      5.66769      6.72546         0.916696      0.128990     -0.865774
Ti       9.47762      5.66462     11.07351         1.312159      1.818985     -0.890433
Ti       9.66882      9.68733      2.30314        -1.772247     -1.331747      1.007677
Ti       9.68389      9.52781     15.36308        -1.052147      1.236369     -1.225507
Ti       9.62639      9.55000      6.56753        -1.797960      0.748067     -0.682572
Ti       9.59336      9.54285     10.97349        -0.613178      0.131361      2.156606
O       1.89560      1.88935      0.54884        -0.462159      0.136284      1.124914
O       1.74374      1.91323     13.64068        -0.194949     -0.134218     -2.240268
O       1.85367     13.37831      0.66761         0.020266     -0.272163     -0.908796
O       1.71742     13.46618     13.51677         0.494310     -0.228413      0.363250
O      13.35237      1.87371      0.53202        -0.318099      0.163789     -0.035775
O      13.09667      1.76230     13.55781         0.807103      0.547058      1.630030
O      13.51085     13.47581      0.62069        -0.187423     -0.544529     -0.947112
O      13.49261     13.26130     13.69325         0.030005      0.788517     -1.148449
O       1.61465      1.82150      4.77585         0.680106      0.072985     -2.296496
O       1.94921     13.28042      4.74522        -0.016992      0.477245      0.287875
O      13.42927      1.94358      4.80505         0.016189     -0.160404      1.325838
O      13.25715     13.45136      4.93519        -0.107157      0.073789     -1.114543
O       1.92908      1.93942      9.32106        -0.211090     -0.261313      0.014888
O       1.85427     13.41815      9.34953        -0.021611     -0.033772     -0.191492
O      13.25780      1.82653      9.26480         0.237566      0.283691     -0.803430
O      13.33260     13.20816      9.27184         0.170617      0.416609     -0.668804
O       1.90831      5.75004      0.61955        -0.568288      0.191920     -1.673981
O       1.70867      5.69942     13.62314         0.346698      0.301619      0.555214
O      13.27912      5.64368      0.30052         0.330869      0.250531      1.927491
O      13.39744      5.99976     13.57094        -0.008127     -1.018724     -0.452142
O       1.76815      5.57168      4.74481         0.502094      0.741592      0.425643
O      13.34404      5.68301      4.91454        -0.204315      0.151878      0.252139
O       1.87653      5.66181      9.29004         0.315729     -0.340520     -1.781641
O      13.55149      5.63618      9.17935        -0.811741      0.341954     -0.109529
O       1.84348      9.50134      0.58259         0.216491      0.297271     -0.948224
O       1.91931      9.53967     13.61510         0.114276      0.262532      0.501986
O      13.52128      9.50297      0.64096        -0.181297      0.368798      0.165531
O      13.40056      9.45642     13.63300         0.200040      0.229544     -0.395866
O       1.96339      9.51541      4.94056        -0.144463      0.266830     -0.381488
O      13.35395      9.32210      4.90924        -0.014546      0.437026     -1.334984
O       1.89463      9.49864      9.27211         0.207052      0.527894     -1.316309
O      13.39994      9.65308      9.24612        -0.165471     -0.322217     -1.098323
O       5.89072      1.85606      0.49419        -0.822419      0.077539      0.142402
O       5.58043      2.09868     13.55837         0.642643     -0.886496      0.714393
O       5.56857     13.52226      0.35917         0.231106     -0.116600      0.705430
O       5.79814     13.25649     13.77091         0.049666      0.201894     -2.503286
O       5.47899      1.91762      4.82844         0.765970     -0.312945     -0.150060
O       5.69524     13.51695      5.00455        -0.004908     -0.386827     -1.491901
O       5.66238      1.59992      9.26371        -0.180583      0.903270      0.342473
O       5.72672     13.36530      9.23238        -0.201332      0.337929      0.087252
O       5.79682      5.69264      0.46208         0.179288      0.705592      0.340280
O       5.86644      5.68890     13.63661        -0.621219     -0.274332     -0.775286
O       5.91285      5.74219      4.85106        -0.965099      0.195637     -0.483066
O       5.70410      5.69419      9.28437        -0.129167     -0.165919     -1.498302
O       5.82606      9.54278      0.57560        -0.192985     -0.682364     -0.913586
O       5.74370      9.44492     13.59508        -0.167977      1.093020     -0.560336
O       5.72550      9.55676      4.98165        -0.183990      0.001908     -0.687610
O       5.73596      9.72182      9.16192        -0.138058     -0.875583      0.593522
O       9.71894      2.11272      0.69637        -0.680813     -0.575676     -0.104237
O       9.56689      1.64943     13.52127         0.109724      0.693886     -0.509633
O       9.64600     13.45209      0.51137        -0.407103     -0.082967     -0.792398
O       9.54599     13.38858     13.68663        -0.443024      0.007436     -0.992844
O       9.37645      1.78525      4.92544         0.454554      0.079007     -0.674226
O       9.43976     13.48971      4.87480         0.278262     -0.090193      0.385711
O       9.50939      1.76868      9.25284         0.472047      0.347158      0.875641
O       9.73656     13.11807      9.16099        -1.083588      1.208454      1.376129
O       9.68966      5.71361      0.54782        -0.515314     -0.081220     -1.531715
O       9.57879      5.78728     13.44117        -0.130849      0.002153      0.763298
O       9.58780      5.69919      4.97396        -0.240791     -0.228820      0.095382
O       9.50680      5.78034      9.28943        -0.480544     -0.126151     -1.142475
O       9.53231      9.57251      0.56200         0.270024      0.286996     -0.957260
O       9.67536      9.55689     13.54794        -0.270316     -0.293245      1.106203
O       9.50644      9.59351      4.72703         0.495295      0.010761      1.257441
O       9.46723      9.67394      9.26501         0.117791     -0.162187     -2.028017
O       3.75044      1.85453      2.78048        -0.702471      0.152413     -0.170893
O       3.80233      2.10314     15.68711         0.076613     -0.782395      0.221523
O       3.82765     13.42041      2.70668        -0.812356     -0.139860      0.191537
O       3.75582     13.37641     15.66495         0.419215      0.150061      0.463482
O      15.23571      2.00609      2.61999         0.565135     -0.166302      0.357817
O      15.24515      1.88827     15.82923         0.301766      0.415031     -0.403173
O      15.24391     13.27762      2.90491         0.398711      0.167590     -0.293906
O       0.02607     13.52550     15.76543        -0.288286     -0.181374      0.511711
O       3.78242      1.82268      6.96064        -0.556515      0.086951      0.470230
O       3.80311     13.40456      6.99883         0.300916      0.095647      0.489167
O       0.05425      1.75921      6.97332        -1.104847      0.499560      0.578533
O      15.27502     13.33607      6.91491         1.053113      0.378091      0.695438
O       3.71758      1.79664     11.52326         0.796605      0.112561     -0.170732
O       3.75437     13.39889     11.39451         1.376581     -0.040601      0.647676
O      15.22025      1.91738     11.32470         0.615995     -0.210018      0.594384
O      15.26978     13.48988     11.35608        -0.370276     -0.393649      0.550149
O       3.75559      5.78314      2.52441         0.986457     -0.159558      0.880321
O       3.82692      5.71223     15.92358        -0.199086      0.830604     -0.755534
O      15.15442      5.67043      2.63664         1.133887      0.066212      0.110299
O      15.27629      5.65891     15.82674         0.818417      0.142530      0.036286
O       3.80539      5.56286      6.98395        -0.167479      0.744416      0.013548
O      15.31006      5.68512      6.94112         0.653934     -0.203676      0.221109
O       3.83915      5.68047     11.38373        -0.093433     -0.219394      0.322272
O      15.25809      5.78630     11.24057         1.355099     -0.328492      1.151343
O       3.82783      9.58285      2.73293        -0.050269     -0.356922      0.255195
O       3.79323      9.61735     15.82144         0.216154     -0.433344     -0.018459
O       0.04813      9.55600      2.76724        -1.900260     -0.195001      0.174113
O      15.35417      9.58968     15.84284         1.123298     -0.113618      0.160142
O       3.73392      9.58009      7.08917         0.989386     -0.179667      0.510669
O      15.27920      9.58062      7.08832         0.556988      0.292221     -0.116641
O       3.78964      9.67166     11.46182         0.587292      0.171118      0.026846
O      15.35213      9.45834     11.36995        -0.180925      0.547714      0.016769
O       7.54558      1.96195      2.67449         0.382317     -0.268438      0.350213
O       7.70281      1.88231     15.68855        -0.010335      0.308449      0.235716
O       7.48596     13.45102      2.58768         0.983066     -0.109280      0.343786
O       7.64022     13.46625     15.84352        -0.414759     -0.133396      0.061143
O       7.63480      1.84380      7.15092        -0.316838      0.265972     -0.007873
O       7.68192     13.41132      6.98069        -0.885374      0.231278      0.875709
O       7.65329      1.97209     11.41921        -0.440135     -0.704792     -0.100135
O       7.55690     13.30602     11.40215         2.006364      0.393964      0.250292
O       7.62669      5.84036      2.70725        -0.876282     -0.387562     -0.278291
O       7.73129      5.78705     15.78694         0.505541     -0.517064     -0.061992
O       7.55686      5.59669      7.06350         0.964079      0.220239      0.414130
O       7.60556      5.66262     11.28541        -0.470318     -0.036147      0.693227
O       7.67355      9.60007      2.74250        -0.804409     -0.382625      0.151424
O       7.69475      9.67856     15.74041        -0.934372     -0.424130     -0.089976
O       7.67118      9.55411      6.93299        -0.159497      0.073268      0.574106
O       7.63259      9.53183     11.38514        -0.938205      0.644803      0.196833
O      11.45582      1.76260      2.82973        -0.560986      0.962212     -0.135246
O      11.38471      1.81354     15.88517         1.008543      0.382682     -0.141681
O      11.40042     13.55472      2.60435         0.504186     -0.506789      0.706486
O      11.53637     13.36256     15.65780         0.058828     -0.199902      0.831248
O      11.47293      1.74213      6.98687         1.182205      0.718663      0.184368
O      11.46226     13.39159      7.05605        -0.002412     -0.019829      0.302149
O      11.44186      1.87899     11.48154        -0.552994      0.026005     -0.332626
O      11.46675     13.44484     11.48937        -0.664003     -0.390581     -0.101633
O      11.41873      5.65551      2.65013         1.214890      0.153309      0.707241
O      11.51609      5.85206     15.71621        -1.542006     -0.067672     -0.304142
O      11.42770      5.84844      7.04806         0.432676     -0.454174      0.352673
O      11.43386      5.77352     11.17588         0.221532     -0.030636      1.032367
O      11.42124      9.51036      2.67665         1.883163      0.123423      0.446688
O      11.52628      9.61444     15.74883         0.306408      0.123140      0.553191
O      11.42125      9.47758      7.04355         0.799329      0.027723     -0.083481
O      11.47015      9.40680     11.32390         0.074115      0.242605      0.068438
O       1.95881      3.83236      2.69973        -0.669962     -0.598766      0.274975
O       2.01586      3.85279     15.68264        -1.310315      0.149063      0.583820
O       1.76472     15.30343      2.56784        -0.191372      0.535419      0.910194
O       1.96298     15.34951     15.63380        -0.231085      0.405279      0.662675
O      13.23783      3.81867      2.57893         0.115056     -0.209455      0.404794
O      13.27707      3.81207     15.60334         0.224840     -0.494886      0.218007
O      13.40011     15.34099      2.69577         0.318635      0.066728      0.552709
O      13.37997      0.02045     15.76215        -0.055327     -0.624871      0.195400
O       1.84457      3.73284      6.75523         0.142428      0.041336      0.968100
O       1.94902     15.28778      6.88920        -0.383037     -0.293536      0.468411
O      13.40127      3.78859      7.05538        -0.264781     -0.549197      0.085171
O      13.45197      0.01018      7.03223        -0.166645     -0.265791      0.300851
O       1.82370      3.80870     11.51362        -0.114935     -0.009989     -0.094449
O       1.76713     15.32594     11.36922         0.055650      0.446740      0.641514
O      13.35361      3.81566     11.26757        -0.337982     -0.149276      0.893883
O      13.29021     15.30282     11.33457         0.315277      0.367924      0.344887
O       1.87569      7.63105      2.79023        -0.254508      0.233558      0.042233
O       1.90358      7.68407     15.81000        -0.057124     -0.203991      0.145315
O      13.36773      7.58351      2.61673        -0.202806      0.313111      0.621070
O      13.44553      7.66605     15.65974         0.089548      0.241730      0.929836
O       1.87462      7.61994      6.93393         0.327748     -0.663656      0.562663
O      13.49690      7.65551      7.08962        -0.772706     -0.361490      0.220665
O       2.03696      7.64029     11.34491        -0.193258      0.365977      0.286996
O      13.41186      7.63451     11.30862        -0.291446      0.474556      0.339668
O       1.83120     11.41133      2.85032         0.456360      0.286241     -0.541339
O       1.90785     11.57935     15.80352        -0.466578     -1.463075      0.236610
O      13.15626     11.47921      2.66555         0.686683     -0.705763      0.468807
O      13.57005     11.46913     15.67496        -0.406998      0.438852      1.209400
O       1.97395     11.53766      6.96289        -0.518497     -0.515166      0.542452
O      13.40467     11.45137      6.81192        -0.513602     -0.067911      0.493880
O       1.74865     11.52796     11.53768         0.670184     -0.441636     -0.425913
O      13.37668     11.45399     11.40849        -0.167285     -0.095129      0.429015
O       5.62047      3.80443      2.66310         0.176321      1.022543      0.111468
O       5.79079      3.87082     15.84912         0.299403     -0.387849      0.056584
O       5.60571     15.34628      2.64710         0.165502     -0.181311      0.188706
O       5.55588      0.07461     15.66783         0.408156     -1.262999     -0.071535
O       5.66075      3.74916      6.93723         0.282803      0.512689      0.730845
O       5.80445      0.02045      7.00199        -0.551146     -0.934650      0.462625
O       5.67226      3.73155     11.46176         0.020580      0.540695     -0.608659
O       5.74368     15.31528     11.54137         0.021821     -0.316430      0.160357
O       5.55757      7.62889      2.70685         0.757010      0.658191      0.025407
O       5.85084      7.64132     15.53019        -0.577097      0.918923      1.406577
O       5.73351      7.60470      7.05803        -0.345470     -0.124014      0.205428
O       5.60294      7.66408     11.41492         0.430109     -0.141368     -0.433037
O       5.63481     11.45988      2.39025         0.199377      0.398794      1.135503
O       5.59238     11.45884     15.85857         0.746335      0.395317     -0.128081
O       5.75527     11.48403      7.02903        -0.368800      0.259727      0.267707
O       5.78550     11.49980     11.31121        -0.669790     -0.468404      0.816680
O       9.43290      3.87974      2.74057         0.411194     -0.821438      0.506583
O       9.72729      3.79533     15.49998        -0.307027      0.901782      0.325328
O       9.42476     15.33384      2.65103        -0.380880      0.892221      0.190983
O       9.56940     15.34203     15.69130         0.052257     -0.364351      0.728888
O       9.62058      3.66641      7.10183        -0.176067      1.876088      0.282939
O       9.60662     15.33625      7.13406        -0.300750     -0.828220      0.375734
O       9.58675      3.80035     11.36314        -0.081610     -0.494040      0.283677
O       9.51118     15.24865     11.34300        -0.345500      0.251546      0.051728
O       9.60070      7.59352      2.65360        -0.290241      1.147989      0.416896
O       9.54712      7.68363     15.76755         0.155894     -0.472431     -0.077447
O       9.41775      7.66520      6.88154         0.105293     -0.649536      0.846235
O       9.38805      7.69980     11.32079         0.344590     -1.202594      0.283675
O       9.49408     11.57178      2.71943         0.349147     -0.158082      0.045269
O       9.50084     11.46939     15.75353         0.652746      0.327773      0.433646
O       9.47801     11.51307      6.94944         0.672123     -1.039099      0.167938
O       9.74347     11.44168     11.49431        -1.093278      0.905795     -0.323320
