  # total energy = -7879.10497126 
CRSYTAL
PRIMVEC
    15.6000000000000000    0.0000000000000000    0.0000000000000000
     0.0000000000000000   15.6000000000000000    0.0000000000000000
     0.0000000000000000    0.0000000000000000    17.640000000000000
PRESSURE
-2.62077 -2.37432 -6.42659 0.20122 -0.299525 0.029404
PRIMCOORD
320 1
Pb       3.75439      3.74565      4.36688         0.446982      0.329769      0.916807
Pb       3.89302      3.92504     17.56555         0.070521      0.043331      0.830801
Pb       3.88429     15.52917      4.28650        -0.265581      0.037085      0.832189
Pb       3.79223     15.56073     17.49245         0.128562     -0.077111      1.148521
Pb       0.05491      3.89078      4.35517        -0.434275     -0.047417      0.809159
Pb      15.58868      3.97556     17.61738         0.093878     -0.322940      0.669931
Pb      15.52659     15.52163      4.26061         0.387562      0.188171      1.003711
Pb      15.47331      0.03915     17.51969         0.196888     -0.297833      0.839291
Pb       3.80879      3.95840      8.76035         0.511615     -0.111078      0.907680
Pb       3.81856      0.05917      8.68367         0.204022     -0.054575      0.955475
Pb      15.56282      3.93343      8.65330        -0.207545     -0.018660      1.981564
Pb       0.01055     15.58957      8.72918        -0.222313      0.170926      0.793507
Pb       3.92537      3.61402     13.21539        -0.201932      0.654879      0.421036
Pb       3.79960     15.50462     13.12991         0.071960      0.236158      1.113664
Pb      15.59380      3.76231     13.14201         0.126842      0.370123      0.651586
Pb      15.58926      0.13807     13.09728        -0.183156     -0.533110      0.936446
Pb       3.88613      7.81633      4.38512        -0.260073      0.019189      0.809216
Pb       3.95525      7.81896     17.56391         0.025088      0.111071      0.704018
Pb       0.04613      8.00125      4.41048         0.245501     -0.818755      0.326321
Pb       0.05472      7.87248     17.49438        -0.042658     -0.354133      0.913715
Pb       3.92195      7.92340      8.82904        -0.205283     -0.486168      0.407699
Pb      15.55197      7.81583      8.84063        -0.054287     -0.467692      0.610191
Pb       3.91691      7.77932     13.08479        -0.337535      0.042770      1.290669
Pb       0.08467      7.90380     13.15676        -0.194490     -0.840423      0.578085
Pb       3.91246     11.63902      4.34515        -0.035005      0.119584      0.543634
Pb       3.94698     11.62681     17.52735        -0.172476      0.396827      1.483382
Pb      15.50738     11.52491      4.25629         0.222637      0.541432      0.652289
Pb      15.54370     11.62926     17.46512         0.205910      0.374984      0.881178
Pb       3.83396     11.56717      8.70973         0.284987      0.603940      1.451797
Pb      15.50897     11.78658      8.77435         0.060353     -0.049634      0.668098
Pb       3.83110     11.78090     13.11447         0.450612     -0.067256      1.250940
Pb      15.50124     11.61911     13.11747         0.167383      0.738662      1.402596
Pb       7.88334      3.66451      4.50062        -0.435070      0.371046      0.479919
Pb       7.78167      3.82506     17.52423        -0.141094     -0.117679      1.125139
Pb       7.69084     15.44418      4.28942         0.258463      0.469026      1.226412
Pb       7.75461     15.58764     17.61250        -0.091374     -0.128144      0.374894
Pb       7.67181      3.91660      8.71287        -0.050036      0.041871      0.921077
Pb       7.82880     15.57987      8.66035        -0.231556      0.277022      1.395986
Pb       8.06986      3.97805     13.05442        -1.203948     -0.271454      0.935427
Pb       7.79682      0.03592     13.20944         0.429978     -0.013544      0.751169
Pb       7.95976      7.75044      4.34789        -0.252510      0.114105      1.300305
Pb       7.82689      7.91465     17.63443        -0.441559     -0.141515      0.703112
Pb       7.72749      7.83383      8.69879         0.472856     -0.351475      1.013086
Pb       7.75353      7.94598     13.06081         0.325971     -0.590604      0.693768
Pb       7.87338     11.72362      4.38908        -0.356378     -0.240512      0.331826
Pb       7.77628     11.71964      0.01615        -0.227823     -0.186363      0.167621
Pb       7.85238     11.71863      8.95189        -0.104830     -0.114840     -0.277591
Pb       7.79772     11.79345     13.17418        -0.386244     -0.328462      0.684380
Pb      11.64984      3.88605      4.42459         0.327090     -0.134023      0.740434
Pb      11.88381      3.82835     17.58532        -0.709374      0.027983      0.926866
Pb      11.49866     15.39257      4.39774         0.463854      0.781452      0.647403
Pb      11.44671     15.47461     17.59745         0.830003      0.167545      0.608865
Pb      11.52325      3.91740      8.75607         0.556344     -0.057688      0.711318
Pb      11.83583      0.07365      8.65900        -0.425193      0.044575      1.584445
Pb      11.81415      3.93237     13.17014        -0.402882     -0.521027      0.588595
Pb      11.69000     15.55104     13.13933        -0.097114      0.194827      0.327468
Pb      11.78369      7.66103      4.22488        -0.541290      0.052042      1.177750
Pb      11.71246      7.70072     17.46980        -0.159247      0.609688      1.474683
Pb      11.56536      7.79690      8.66485         0.066091     -0.019455      1.134285
Pb      11.76215      7.70834     13.21026        -0.293672      0.424322     -0.109999
Pb      11.67913     11.65732      4.21310         0.029663     -0.051005      0.601283
Pb      11.84428     11.54036     17.41631        -0.833335      0.493438      1.108287
Pb      11.74467     11.60527      8.55779        -0.065671     -0.107343      1.613213
Pb      11.60031     11.60853     12.95890         0.199464      0.242293      1.609778
Ti       1.87110      1.86504      2.44342         0.590442      0.501449     -2.094516
Ti       1.90180      1.97420     15.76918        -0.490215     -0.412970     -2.421201
Ti       1.93577     13.54085      2.45606        -0.038186      0.372594     -2.143337
Ti       1.92304     13.61085     15.76272        -0.093914      0.347744     -3.131239
Ti      13.59717      1.86301      2.50648        -0.488731      1.040584     -1.447452
Ti      13.50588      1.88478     15.70982         0.450154     -0.533817     -1.945197
Ti      13.68389     13.64154      2.42942        -0.272365     -0.492153     -1.705853
Ti      13.62316     13.62339     15.61581        -0.310686      0.736993     -1.289588
Ti       1.91361      1.98163      6.85604         0.005955     -0.255091     -1.123842
Ti       1.92539     13.62285      6.84992         0.019902      0.472144     -1.331822
Ti      13.65762      2.00271      6.84870        -0.544787      0.338736     -1.462889
Ti      13.63302     13.63237      6.82410         0.457452     -0.119019     -2.136402
Ti       1.91464      1.93067     11.19665         0.029564      0.427087     -1.257841
Ti       1.87916     13.64657     11.26689        -0.557171      0.197762     -1.233675
Ti      13.56887      1.97125     11.23661         0.178415     -0.855163     -1.607784
Ti      13.64473     13.62731     11.33060        -0.591374      0.570748     -2.376270
Ti       1.90656      5.82976      2.48112         0.277655      0.689446     -2.525075
Ti       1.93355      5.87337     15.71549         0.201409     -0.038773     -2.415728
Ti      13.71260      5.75501      2.47211        -0.868871     -0.150897     -1.841127
Ti      13.61400      5.81368     15.66468         0.453441     -0.374420     -0.981236
Ti       1.90480      5.87774      6.95325        -0.234552      0.405781     -1.348882
Ti      13.60050      5.84154      6.89465        -0.453898     -0.277827     -1.444028
Ti       1.93723      5.80962     11.37568        -0.653334     -0.113832     -2.261912
Ti      13.67110      5.81992     11.31761         0.176914      0.382647     -1.443738
Ti       1.98679      9.73980      2.37865         0.115895      0.386454     -1.118510
Ti       1.98088      9.76170     15.63259         0.209900      0.420885     -1.056432
Ti      13.64617      9.65825      2.31433        -0.336690      0.166189     -2.088517
Ti      13.65791      9.67140     15.57288        -0.133752      0.400788     -1.399460
Ti       1.86592      9.79490      6.96375         0.238098     -0.594668     -2.374057
Ti      13.67184      9.66288      6.85029         0.009187     -0.211440     -1.211123
Ti       1.90228      9.79481     11.30387         0.588480     -0.592726     -2.409764
Ti      13.63599      9.71974     11.25109        -0.752274     -0.451873     -1.478849
Ti       5.85297      1.92162      2.50702        -0.500699      0.178772      0.020296
Ti       5.77217      1.94987     15.62962         0.737576     -0.561004     -1.479755
Ti       5.82663     13.59960      2.43880        -0.290304     -0.722513     -1.515960
Ti       5.79841     13.68005     15.71303        -0.078400     -0.663440     -1.998385
Ti       5.79265      1.91645      6.89976         0.260012      0.643064     -1.141563
Ti       5.80406     13.59467      6.97419         0.053611     -0.077594     -2.351306
Ti       5.86647      1.93745     11.30334        -0.008127      0.342723     -2.860747
Ti       5.87630     13.71348     11.26840        -0.249850     -0.873679     -0.626022
Ti       5.79139      5.79229      2.62830         0.037397     -0.480532     -1.982032
Ti       5.82881      5.87356     15.68626        -0.402856      0.153353     -1.401485
Ti       5.72566      5.86717      6.84575         0.353348     -0.468872     -1.162716
Ti       5.74155      5.82574     11.28843         1.168000     -0.763360     -1.713647
Ti       5.88421      9.67959      2.58403        -0.231210      1.234324     -2.105915
Ti       5.85801      9.77053     15.67297         0.009346      0.750355     -1.161231
Ti       5.80541      9.75534      6.81251         0.668875     -0.006640     -1.374547
Ti       5.79364      9.76757     11.28546        -0.461856      0.881718     -2.353144
Ti       9.76516      1.86762      2.51499        -0.214256      0.405809     -0.631796
Ti       9.67857      1.93948     15.64275         0.183170     -0.696407     -2.001317
Ti       9.72692     13.59488      2.45103        -0.366402      0.393169     -2.030851
Ti       9.69620     13.57315     15.69331        -0.099927      0.143742     -1.641502
Ti       9.71595      1.93112      6.90272         0.174390      0.425396     -1.839469
Ti       9.78613     13.65953      6.92142        -0.632070     -0.358779     -1.372835
Ti       9.72789      1.94728     11.24183         0.888427     -0.864750     -2.029480
Ti       9.71030     13.64827     11.24903         0.375137      0.806292     -2.143948
Ti       9.66594      5.73458      2.47673         0.371095      0.154842     -1.113400
Ti       9.65468      5.82090     15.71614         0.291479     -0.291438     -1.511562
Ti       9.65645      5.83196      6.89717         0.341464      0.345454     -2.100958
Ti       9.78525      5.83845     11.25890        -0.746365      1.137577     -2.191500
Ti       9.73013      9.69409      2.41263        -0.263633      0.064781     -1.098673
Ti       9.73205      9.71878     15.67790        -0.579551      0.975600     -2.087260
Ti       9.66033      9.77594      6.81150         0.019328     -0.771443     -2.126424
Ti       9.71148      9.74142     11.21972         0.285480     -0.867458     -2.113706
O       1.90626      1.98913      0.59896         0.058444     -0.243390      1.322437
O       1.93811      1.94174     13.84114        -0.119355      0.212515      1.948227
O       1.96609     13.68411      0.64538        -0.178254     -0.378650      0.923673
O       1.94258     13.60221     13.87477        -0.009885      0.225023      1.793343
O      13.55730      1.92674      0.67784        -0.040660      0.090012      1.134779
O      13.58677      1.86156     13.89110         0.073459      0.272109      0.868991
O      13.67876     13.60634      0.65265        -0.118785      0.061429      0.965940
O      13.56408     13.66926     13.83994         0.017162      0.062260      0.709723
O       1.90310      2.00627      5.04155        -0.171155     -0.028714      0.973208
O       1.97186     13.66420      5.07805        -0.181253     -0.052213      0.405695
O      13.57243      2.03567      5.06543         0.590839     -0.233779      0.917452
O      13.57635     13.54274      4.99740         0.232474      0.385347      1.358551
O       1.89312      1.92702      9.42237         0.358824     -0.083932      0.688301
O       1.77215     13.64608      9.48103         0.284257     -0.120004      1.164479
O      13.61352      1.85689      9.46313        -0.181796      0.274887      0.603700
O      13.61768     13.59333      9.49624         0.242269     -0.001189      0.791881
O       1.81472      5.88437      0.58936         0.349616      0.038646      1.774609
O       1.96029      5.91961     13.87342        -0.202023     -0.259123      1.800653
O      13.60779      5.74822      0.57990         0.077177      0.044117      1.802448
O      13.56474      5.69460     13.86188        -0.133428      0.498999      1.426399
O       1.86486      5.80661      5.18919         0.112729      0.246066      0.328965
O      13.52510      5.84699      5.09522         0.404309      0.123110      0.789183
O       1.88564      5.79761      9.54468         0.100889      0.031664      1.407699
O      13.68526      5.81208      9.56448        -0.105675      0.128062      0.459316
O       1.90735      9.79731      0.60991         0.055303     -0.381227     -0.191434
O       1.90025      9.81001     13.85524         0.165757     -0.312692      0.451868
O      13.55715      9.64976      0.45273         0.439737      0.100190      1.870406
O      13.68583      9.68984     13.76507        -0.187495     -0.094768      1.275341
O       1.99681      9.75976      5.11126        -0.799595      0.071337      1.639238
O      13.90508      9.60646      5.03992        -0.810806      0.291153      1.111174
O       1.86516      9.89634      9.44588         0.260535     -0.399742      1.363695
O      13.60429      9.77430      9.45198         0.417190      0.039122      0.879897
O       5.89781      1.96936      0.77895        -0.163969     -0.005972     -0.336089
O       5.84137      1.89940     13.82299        -0.226831      0.251092      1.066353
O       5.79277     13.61509      0.66090         0.059139      0.040411      0.805567
O       5.68285     13.65069     13.88720         0.470316      0.050821      1.045478
O       5.84010      2.00780      5.11771        -0.244668     -0.597002      0.855707
O       5.85644     13.57375      5.14010        -0.152041      0.128603      1.707674
O       5.84200      1.92265      9.41168         0.049036     -0.046821      2.257680
O       5.88399     13.61592      9.49560         0.007307      0.315483      0.438577
O       5.78271      5.76560      0.73948         0.002757      0.066931      2.469318
O       5.73110      5.95460     13.92451         0.435356     -0.182487      0.719015
O       5.61456      5.92865      5.07502         0.326761     -0.231675      0.641398
O       5.80853      5.74455      9.48833        -0.273738      0.473819      1.374472
O       5.79414      9.76207      0.74345         0.365951     -0.401062      1.297652
O       5.73820      9.83131     13.90312         0.542773     -0.284110      0.370683
O       5.76812      9.70865      4.97993         0.056981      0.413682      1.671228
O       5.68524      9.81807      9.42191         0.396280     -0.269532      1.651624
O       9.69955      1.93898      0.75292         0.174524     -0.293126      0.283536
O       9.63397      1.84051     13.80733         0.260227      0.379622      1.481856
O       9.61146     13.75041      0.66488         0.436545     -0.397746      0.590648
O       9.63454     13.67372     13.88871         0.131045     -0.459427      1.018726
O       9.68531      1.88550      5.06538        -0.076839      0.114498      1.587261
O       9.75932     13.59033      5.07239         0.088152      0.184189      1.230205
O       9.82283      1.94297      9.40467        -0.299051     -0.050232      1.343291
O       9.63204     13.72557      9.40693         0.214457     -0.566932      1.459610
O       9.63493      5.82745      0.68017         0.052358     -0.339091      0.952640
O       9.77220      5.84092     13.89819        -0.323439      0.030460      1.603866
O       9.75399      5.81178      5.08662        -0.039985      0.123630      1.008392
O       9.74942      5.98189      9.45649         0.211649     -0.631624      1.134099
O       9.60795      9.71543      0.61494         0.314229     -0.133276      0.964904
O       9.68250      9.78868     13.84071        -0.052469     -0.388631      1.258726
O       9.58921      9.72393      4.95695         0.443132      0.393191      2.023135
O       9.70109      9.76507      9.39122        -0.165403      0.092896      1.300611
O       3.80756      1.88977      2.87748        -0.037645     -0.088685     -0.201999
O       3.89993      1.95273     16.01593        -0.503460     -0.131599      0.156734
O       3.81393     13.60694      2.87012         0.460678      0.011269     -0.097441
O       3.87618     13.61891     16.01963        -0.836639      0.140805      0.463159
O      15.52574      2.03104      2.86359         0.408747     -0.468132     -0.119679
O       0.04154      1.89908     16.08654        -0.588039      0.304675     -0.230924
O       0.00376     13.60049      2.80332        -0.525895      0.145830      0.298846
O      15.53023     13.70758     16.00406        -0.124616     -0.369366      0.216753
O       3.84955      1.99881      7.27233         0.040312     -0.251206     -0.205024
O       3.80324     13.51225      7.33916         1.068129      0.744908     -0.384259
O       0.03884      1.96287      7.33465        -0.589701     -0.058299     -0.883326
O      15.56252     13.68469      7.20185        -0.545954     -0.060713      0.000105
O       3.92698      1.92306     11.56262        -0.331399     -0.036355      0.177285
O       3.76366     13.69672     11.69741         0.600579     -0.214500     -0.881791
O      15.59284      1.98001     11.55281        -0.440574     -0.130400      0.410906
O      15.50977     13.63217     11.64822         0.966341     -0.026673      0.203708
O       3.83732      5.89652      2.91523         0.232257     -0.091832     -0.335033
O       3.87488      5.87489     16.12620        -0.127526     -0.068777     -0.096679
O       0.03805      5.80978      2.88422        -0.734553      0.343384     -0.152582
O      15.48873      5.81617     16.12515         0.595051      0.520291     -0.687068
O       3.83362      5.93555      7.32863         0.105791     -0.152644     -0.028719
O      15.50202      5.84312      7.31990         0.601507      0.146641     -0.268230
O       3.86595      5.79685     11.70030         0.168305      0.058641     -0.203278
O      15.52578      5.88582     11.78101         1.000528     -0.371865     -0.053920
O       3.86027      9.81998      2.81447         0.652582     -0.270838      0.079439
O       3.92270      9.81680     16.08746        -0.646834     -0.577041     -0.302183
O      15.57505      9.67545      2.68872        -0.872816      0.218625      0.189244
O      15.59081      9.72286     15.98080        -0.274978     -0.044161     -0.093741
O       3.86078      9.73355      7.25229         0.208995     -0.148273     -0.186229
O       0.00025      9.68560      7.24788        -0.817722      0.200079      0.119013
O       3.90159      9.71524     11.65055        -0.780820      0.562637     -0.166636
O      15.57213      9.72253     11.67394         0.181995      0.078011     -0.409970
O       7.73708      1.86692      2.94360         0.301101      0.073366     -0.228591
O       7.78689      1.84655     16.08804        -0.451537      0.271123     -0.211843
O       7.80150     13.63818      2.80416        -0.405546     -0.286416      0.137929
O       7.69240     13.58425     16.09730         1.112852      0.178612     -0.086209
O       7.73497      1.98080      7.29660         0.652110     -0.303260     -0.494107
O       7.84895     13.64109      7.35200        -0.408113     -0.175321     -0.673604
O       7.88187      1.94819     11.62553        -0.920236      0.216175     -0.039610
O       7.77239     13.63949     11.70688        -0.084622     -0.082577     -0.370584
O       7.77896      5.75198      3.09123        -0.456794     -0.149220     -1.160310
O       7.68937      5.73350     16.17455         1.072502      0.579115     -0.801901
O       7.76244      5.82588      7.24203        -0.319253      0.113170     -0.099857
O       7.85195      5.84635     11.61288        -0.417472     -0.111767      0.319886
O       7.85732      9.75141      2.90717        -0.817431     -0.120003     -0.396822
O       7.76592      9.82780     16.10116         0.034660     -0.222203     -0.151010
O       7.74608      9.76493      7.25447        -0.063247      0.162604     -0.270379
O       7.68004      9.81272     11.59936         0.814000     -0.093333      0.064983
O      11.62354      1.81799      3.00178         0.692597      0.195865     -0.677185
O      11.62649      1.89700     16.01873         0.054733      0.321851      0.204335
O      11.69826     13.66793      2.81630         0.034942     -0.344267     -0.132072
O      11.59975     13.59182     16.08765         0.725068      0.010202     -0.110648
O      11.69072      2.09108      7.26296        -0.378354     -0.779038     -0.295669
O      11.74151     13.58931      7.26252        -0.290303      0.393379     -0.413450
O      11.69319      1.93925     11.65851        -0.400803     -0.290053      0.099596
O      11.62327     13.56411     11.60072        -0.167268      0.356233      0.171614
O      11.72426      5.72845      2.97817        -0.374967      0.526561     -1.080944
O      11.61270      5.86774     16.13342         0.153324     -0.595334     -0.770827
O      11.66302      5.88492      7.31001        -0.282601     -0.321852     -0.187702
O      11.69243      5.87127     11.75355        -0.125148      0.142100     -0.163053
O      11.60766      9.76975      2.75193         1.329669     -0.411020     -0.117298
O      11.67893      9.67778     15.95012         0.329003     -0.033125     -0.055769
O      11.66970      9.63115      7.09760         0.238662      0.649874     -0.125036
O      11.68352      9.75487     11.50970        -0.258839     -0.266458      0.410225
O       1.92366      3.96331      2.81329         0.062405     -0.480105     -0.043673
O       1.89935      3.95791     16.10495         0.229444     -0.296425     -0.332842
O       1.86028      0.02854      2.76083        -0.114317     -0.597906      0.350580
O       1.88313     15.58146     16.07539         0.457460      0.232466      0.011579
O      13.58852      3.89706      2.84869         0.252677     -0.208155     -0.109629
O      13.68320      3.79576     16.08221        -0.540028      0.954705     -0.193996
O      13.67459      0.00210      2.79268         0.032787     -0.792319      0.131359
O      13.51783      0.00701     16.05829         0.386080     -0.711486      0.121228
O       1.94286      3.90187      7.33423        -0.121409      0.184164     -0.635528
O       1.95220      0.00783      7.25065        -0.059431      0.015603     -0.231278
O      13.58346      3.88802      7.30091         0.341423      0.365502     -0.210080
O      13.62841      0.07744      7.20678         0.181249     -1.101992     -0.428124
O       1.86215      3.85956     11.70114         0.552747      0.116923     -0.088621
O       1.86302      0.02872     11.61259         0.106579     -0.569688     -0.141680
O      13.54790      3.87747     11.58977         0.433416     -0.009606      0.475591
O      13.61055      0.01609     11.58951        -0.039481     -0.379515      0.465491
O       1.93506      7.93340      2.86646         0.029124     -1.715570     -0.093843
O       1.98992      7.87636     15.97012        -0.371838     -0.802907      0.420253
O      13.63066      7.72954      2.77387         0.061916      0.625691     -0.245218
O      13.59641      7.78076     15.98007         0.168290     -0.527117     -0.338150
O       1.82220      7.80364      7.35017         0.551807      0.255107     -0.069560
O      13.58593      7.73704      7.36786         0.608646      0.981073     -0.542308
O       2.00331      7.79172     11.58389        -0.574485      0.323714      0.366617
O      13.67400      7.80063     11.62664        -0.382275      0.381752      0.376971
O       1.87588     11.64723      2.82511         0.011613      0.507364      0.079630
O       1.86457     11.69946     16.06979         0.136342     -0.101875     -0.029685
O      13.64951     11.60795      2.68967        -0.174044     -0.112326      0.305745
O      13.65341     11.67697     15.93668        -0.054533     -0.329406     -0.029683
O       1.84540     11.74372      7.27688        -0.044504     -0.923656     -0.131068
O      13.68330     11.63947      7.15389        -0.163391      0.095003     -0.054927
O       1.83853     11.61707     11.74660         0.375872      1.165133     -0.717135
O      13.60685     11.72956     11.70088         0.241767     -1.018985     -0.360582
O       5.71370      3.76615      3.06808         0.558706      1.428516     -0.945863
O       5.76962      3.81890     16.02609         0.228202      0.528166     -0.002031
O       5.79107     15.47019      2.86602        -0.002929      0.979245      0.052866
O       5.79720     15.54862     16.13572         0.038999      0.883363     -0.239669
O       5.82953      3.93181      7.27518        -0.463190     -0.091359     -0.263787
O       5.78690     15.58406      7.21392        -0.102728     -0.523223      0.108269
O       5.84381      3.89738     11.66384         0.139937     -0.257403      0.155328
O       5.91612      0.02841     11.80182        -0.554572     -0.301273     -1.012111
O       5.83665      7.84686      3.01777         0.111904     -1.207732     -0.846452
O       5.88145      7.85294     16.10684        -0.255504     -0.621170     -0.108383
O       5.90991      7.74567      7.29004        -0.992152      1.188564     -0.312138
O       5.81267      7.83764     11.61123         0.046671     -0.499817     -0.079129
O       5.87270     11.71256      2.86649        -0.051457     -0.293872      0.276860
O       5.78501     11.71594     16.18495         0.531654     -0.238992     -0.530226
O       5.86124     11.65590      7.27011        -0.209294      0.072230     -0.118788
O       5.81117     11.78862     11.69996        -0.144749     -0.213862     -0.317015
O       9.77262      3.81825      2.93110        -0.474212      0.170791     -0.352246
O       9.71608      3.80635     16.02224        -0.188935      1.168098     -0.080922
O       9.67132     15.52892      2.85270         0.268651      0.054825      0.248337
O       9.74969     15.55069     16.08437        -0.645034      0.046579     -0.139014
O       9.68370      3.92019      7.22252         0.058240     -0.479116      0.111386
O       9.82557      0.02978      7.22758        -0.228962     -0.554801     -0.269302
O       9.85877      3.87336     11.56278        -0.232106      0.357325      0.147136
O       9.67574     15.53705     11.64039         0.362857      0.197972     -0.089558
O       9.73604      7.70163      2.81471         0.043653      0.227697     -0.268715
O       9.61809      7.85198     16.12653         0.271743     -1.476816     -0.493752
O       9.62819      7.79820      7.22509         0.150314      0.485947     -0.167145
O       9.65347      7.81372     11.59140         0.487675      0.319048      0.457221
O       9.73270     11.70886      2.78213         0.063577     -0.304421      0.147411
O       9.77068     11.62947     16.09981        -0.305765      0.517750     -0.086509
O       9.75571     11.68172      7.23213        -0.167127      0.156112     -0.170829
O       9.69397     11.62682     11.58093        -0.414823      0.756877     -0.031353
