  # total energy = -7882.27646669 
CRSYTAL
PRIMVEC
    15.3600000000000000    0.0000000000000000    0.0000000000000000
     0.0000000000000000   15.3600000000000000    0.0000000000000000
     0.0000000000000000    0.0000000000000000    17.440000000000000
PRESSURE
0.842619 0.739648 -1.84231 0.11843 0.331226 0.072153
PRIMCOORD
320 1
Pb       3.73975      3.84397      4.26487         0.051619      0.180570      0.175658
Pb       3.79773      3.84688     17.34971         0.097667      0.337728     -0.024946
Pb       3.81845      0.02434      4.23604         0.009962     -0.235527      0.626211
Pb       3.81671      0.07600      0.05384         0.113352     -0.366593     -0.491797
Pb      15.28854      3.81138      4.34730         0.253815     -0.049717     -0.348564
Pb      15.31166      3.87255     17.41602        -0.072617      0.167664     -0.848755
Pb      15.24734     15.26255      4.29041         0.603553      0.386389      0.562039
Pb      15.29034     15.29713      0.03386         0.285987      0.144323     -0.482619
Pb       3.81721      3.77959      8.73954         0.415768      0.319436     -0.526455
Pb       3.83995     15.30245      8.75786         0.010833     -0.104868     -0.679124
Pb       0.04408      3.69867      8.68747        -0.229279      0.505363      0.101262
Pb       0.02782      0.02655      8.64871        -0.095086     -0.724633     -0.045646
Pb       3.67066      3.87548     13.04363         0.271353     -0.708829      0.224820
Pb       3.81091     15.24326     13.15519        -0.119060      0.473192     -0.386017
Pb      15.28841      3.81545     13.03658         0.344686      0.065755      0.045411
Pb       0.02643      0.03861     13.01506         0.109346     -0.365762     -0.424569
Pb       3.82097      7.62781      4.27757         0.240167      0.065091     -0.310961
Pb       3.76980      7.68582     17.39759         0.405028      0.355870      0.124822
Pb      15.31492      7.61749      4.38316         0.071997     -0.086496     -0.468065
Pb      15.27848      7.72135     17.34562         0.174456     -0.405643      0.231658
Pb       3.93355      7.57775      8.77902        -0.574611      0.507430     -0.338055
Pb       0.04462      7.62643      8.75096        -0.171586     -0.134625     -0.544703
Pb       3.77474      7.70736     13.02942        -0.317269      0.345614      0.155468
Pb       0.04810      7.66636     12.98094         0.198032      0.153390      0.097837
Pb       3.75763     11.49297      4.25563         0.100770     -0.043161      0.100297
Pb       3.88751     11.46456     17.43966         0.076627     -0.353482     -0.234192
Pb      15.31171     11.53594      4.30419         0.212490     -0.225461      0.168254
Pb      15.34446     11.49591     17.40550         0.086671     -0.030748     -0.073617
Pb       3.74123     11.53943      8.65875         0.350231     -0.397866     -0.253688
Pb      15.33486     11.41279      8.64831        -0.311703      0.861280     -0.288737
Pb       3.78471     11.54790     13.08977         0.146475     -0.296839      0.065625
Pb      15.26964     11.47484     13.15586         0.332596      0.089557     -0.809917
Pb       7.66296      3.80539      4.41808         0.232844      0.200968     -0.535989
Pb       7.63318      3.89737     17.31069         0.930272     -0.079572      0.109093
Pb       7.69153      0.09259      4.22576        -0.178413     -0.219371     -0.290276
Pb       7.73371     15.35872     17.43269         0.006152     -0.235581     -0.574337
Pb       7.71776      3.66391      8.77097        -0.339743      0.436657     -0.462809
Pb       7.62736     15.22605      8.63895        -0.134455      0.173603      0.080659
Pb       7.62384      3.77490     13.18891        -0.056954     -0.326204     -0.742506
Pb       7.58827     15.28275     13.15686         0.656137     -0.071762     -0.109932
Pb       7.59152      7.66987      4.31475         0.461157     -0.408757      0.067640
Pb       7.77314      7.60016     17.40921        -0.733059      0.298785     -0.039878
Pb       7.53932      7.69411      8.68459         0.399029     -0.028809     -0.462314
Pb       7.55180      7.61445     12.99779         0.203491      0.404945     -0.067381
Pb       7.67581     11.51784      4.33941        -0.036286      0.499475     -0.751449
Pb       7.75008     11.49529      0.06415         0.013306      0.002999     -0.484872
Pb       7.57225     11.41463      8.69168        -0.009727      0.147356     -0.245534
Pb       7.61369     11.40044     13.10836         0.020401      0.502410     -0.040076
Pb      11.45415      3.82650      4.40068         0.183181      0.187224     -0.364842
Pb      11.52070      3.82074     17.34176        -0.281539      0.257960     -0.472576
Pb      11.37591      0.04897      4.28372         0.314700     -0.424271     -0.548302
Pb      11.62337     15.35020     17.35486        -0.091783     -0.060422      0.155343
Pb      11.50428      3.80276      8.74253         0.160694      0.387836     -0.167287
Pb      11.48743     15.21326      8.63985         0.800481      0.084821      0.132178
Pb      11.51347      3.84711     13.07673         0.008107     -0.255841     -0.517054
Pb      11.54762     15.32367     12.96706        -0.099582     -0.013089     -0.256742
Pb      11.43361      7.78626      4.32696         0.067414     -0.654954      0.111840
Pb      11.54944      7.58560     17.41049         0.083102      0.502554     -0.406537
Pb      11.41566      7.59557      8.73340         0.093580     -0.321136     -0.681546
Pb      11.56618      7.73521     12.87489        -0.305687      0.017481      0.500034
Pb      11.47753     11.48571      4.45420         0.200907      0.508223     -0.747386
Pb      11.57943     11.52944      0.01683        -0.353879     -0.381187     -0.134051
Pb      11.48201     11.53152      8.74647         0.386548      0.033035     -0.935194
Pb      11.42980     11.45502     12.99798         0.278390      0.251021     -0.021111
Ti       1.95766      1.95177      2.25713        -1.009995     -0.174274      0.305037
Ti       1.93704      1.90645     15.44690        -1.360291      0.231782     -1.382159
Ti       1.97131     13.48395      2.31921        -0.463491     -0.620086      0.614879
Ti       1.95125     13.42514     15.42835        -0.185767      0.243967     -0.589447
Ti      13.49124      1.87963      2.31499        -0.587965      0.532749     -0.179507
Ti      13.46669      1.90526     15.33705         0.913318      0.539821      0.309168
Ti      13.51585     13.39723      2.30761        -1.376993     -0.416086      0.405802
Ti      13.47513     13.42573     15.38252         0.192153     -0.333824     -1.003343
Ti       1.94508      1.91131      6.63316         0.008366     -0.110072     -1.417072
Ti       1.99257     13.42906      6.64181        -0.549568      0.160391      0.134549
Ti      13.43302      2.02736      6.64612        -0.008221     -1.403463     -0.075105
Ti      13.48760     13.53557      6.65785         0.472302     -1.502557     -0.165504
Ti       1.94598      1.94036     11.02518         0.330685     -0.571968      0.870906
Ti       2.03026     13.47702     11.06952        -2.287243     -0.097477     -0.755119
Ti      13.47618      1.93471     10.98245        -0.174473     -0.167976     -0.360523
Ti      13.47410     13.45307     11.05578         1.033221      0.383218     -1.695979
Ti       1.85733      5.79302      2.30805         0.337034     -0.469749     -0.660244
Ti       1.94864      5.76563     15.39716        -1.400279     -0.426965     -0.246372
Ti      13.41558      5.77118      2.24926         0.095131     -1.105700     -0.182022
Ti      13.41480      5.79055     15.29564         0.483845     -0.563739      0.026799
Ti       1.92314      5.70174      6.65156        -0.257252      0.544919     -0.515291
Ti      13.48978      5.71713      6.74240        -1.095821      0.696037      0.163156
Ti       1.94574      5.76087     11.03093        -0.797446      0.136386      0.214327
Ti      13.44863      5.80071     11.06927         0.229489     -0.635113     -1.392409
Ti       1.87242      9.58335      2.34650         0.348564      0.133896     -0.981067
Ti       1.86930      9.58536     15.42373         1.329828     -0.519724     -1.875853
Ti      13.37270      9.53559      2.34760         0.793645      0.560493     -1.712798
Ti      13.42209      9.60618     15.36442        -0.500831     -0.055895     -0.860757
Ti       1.83093      9.55004      6.63935         1.466583      0.501027      0.005426
Ti      13.38602      9.55393      6.65063         0.001750      1.409231      0.277573
Ti       1.86973      9.67936     11.01677         0.062519     -0.367393      0.752889
Ti      13.42729      9.64740     10.97502         0.332229     -0.075872     -0.256481
Ti       5.72013      2.00514      2.28390         1.197255     -0.345952      0.913333
Ti       5.73116      1.93710     15.41873         0.909673     -0.117646      0.810709
Ti       5.71806     13.49947      2.22213         1.494477     -0.307378      0.634876
Ti       5.78239     13.42182     15.58602         0.532284     -0.460570     -1.242076
Ti       5.75764      1.93626      6.65206         0.222069     -0.507253      0.517617
Ti       5.81893     13.41151      6.58025        -1.084383      0.229474     -0.387528
Ti       5.76720      1.82377     11.04125         0.093633      0.964239      0.483029
Ti       5.81615     13.42581     11.09321         0.024511     -0.647399     -1.296364
Ti       5.83422      5.73477      2.30320        -0.198413      0.370077     -0.782495
Ti       5.74019      5.79327     15.35514         0.241713      0.185859      0.223204
Ti       5.73407      5.80156      6.69770         0.293969     -0.841791      0.279871
Ti       5.67055      5.67145     11.10114         0.670248     -0.047178     -1.660288
Ti       5.79726      9.61714      2.38824        -1.004801     -0.324927     -1.891493
Ti       5.82426      9.56147     15.38963        -0.729937      0.100040      0.377759
Ti       5.65589      9.64743      6.61831         0.039723     -0.107685     -0.089732
Ti       5.63452      9.61541     11.06335         0.213870      0.742750     -1.360430
Ti       9.60103      1.97744      2.24873        -0.655466     -0.779456      1.051975
Ti       9.71796      1.76642     15.36604        -1.080709      0.772182     -0.313648
Ti       9.60609     13.47395      2.21714         0.406468     -0.458346      0.807130
Ti       9.68226     13.29935     15.40727        -1.532552      0.787586     -0.137900
Ti       9.60601      1.86392      6.72325         0.267105      0.603539     -0.359452
Ti       9.60977     13.41328      6.59916         0.518649     -0.905529     -0.109938
Ti       9.65699      1.85155     10.99963        -0.334691      0.563934      1.781078
Ti       9.54071     13.38645     11.00316         1.076164      0.555336     -0.347067
Ti       9.69048      5.76414      2.28262        -1.386466     -0.159661      1.097650
Ti       9.55995      5.83635     15.23706         0.424127     -1.569914      0.584894
Ti       9.56320      5.72240      6.67764         0.612957      0.255541      0.191524
Ti       9.53364      5.77023     11.14311         0.739412     -0.210595     -1.567965
Ti       9.57185      9.63066      2.28502         0.170547      0.278525      0.478809
Ti       9.62773      9.52546     15.34390        -0.113933      1.025700      0.185385
Ti       9.58044      9.59409      6.54452        -0.478356     -0.090936      0.933032
Ti       9.48803      9.63193     10.97528         0.424367     -0.166584      0.229732
O       2.11326      1.99461      0.46247        -0.338623     -0.305191      0.193931
O       1.83073      1.93082     13.63693         0.339082     -0.068391      0.473914
O       1.98888     13.52646      0.60086        -0.054349     -0.210406     -1.749441
O       1.79629     13.58200     13.63478         0.718677     -0.625989      0.197933
O      13.34023      1.76449      0.53170         0.379193      0.177652      0.667646
O      13.47854      1.98351     13.56740        -0.091275     -0.169179      0.119189
O      13.62441     13.43059      0.53561        -0.375148      0.081536     -0.575301
O      13.51799     13.46770     13.60865         0.084514      0.042309     -0.054604
O       1.91402      2.00269      4.83152         0.124575     -0.389563      0.819688
O       2.09246     13.42351      4.89169        -0.202288      0.030586     -0.551224
O      13.53604      1.98430      4.85014        -0.444839      0.030377      0.159916
O      13.52459     13.45422      4.87073        -0.209049     -0.119817     -0.749048
O       2.06921      1.90627      9.27811        -0.420335      0.109095     -0.793613
O       1.97264     13.65316      9.30015         0.545580     -0.619461     -0.438768
O      13.48651      1.99977      9.20106        -0.060949     -0.205838      0.138520
O      13.46917     13.50518      9.22227        -0.234631     -0.190091      0.650500
O       1.89629      5.82642      0.49081         0.061435     -0.416911      1.011538
O       1.86591      5.78428     13.62751         0.259787      0.003737     -0.730306
O      13.44800      5.76381      0.46674        -0.306632      0.138354      0.006988
O      13.53950      5.75734     13.51005        -0.273404      0.022137     -0.007222
O       1.75958      5.71620      4.84525         0.674372      0.223480      0.323022
O      13.32752      5.58940      5.00623         0.681372      0.318504     -0.838738
O       1.92872      5.63168      9.30639         0.236096      0.384327     -1.151812
O      13.49442      5.78097      9.26951        -0.026497      0.141760     -0.043448
O       2.01883      9.46217      0.53414        -0.576511      0.252717      0.275293
O       1.88950      9.61043     13.54770         0.019663     -0.076531      1.758036
O      13.48050      9.44152      0.48940        -0.231540      0.396756      0.765656
O      13.38020      9.61232     13.56120         0.189590     -0.036482      0.881698
O       1.94652      9.71246      4.85503        -0.240610     -0.688220     -0.109914
O      13.33284      9.71559      4.83885         0.074768     -0.569299     -0.029031
O       1.98413      9.65441      9.26778        -0.539689      0.080105     -0.493127
O      13.57024      9.75671      9.19408        -0.371675     -0.596633      0.438846
O       5.64574      1.98886      0.55261         0.034313     -0.011561     -1.191826
O       5.74015      2.13683     13.72146         0.072564     -0.606413     -1.237338
O       5.73630     13.55426      0.45167        -0.278316     -0.281184     -0.008728
O       5.87635     13.35462     13.76508        -0.248856      0.189666     -0.401571
O       5.95388      1.87311      4.90601        -0.571699      0.259068     -0.214737
O       5.75073     13.39121      4.78436         0.314619      0.041549      0.677474
O       5.84449      1.88844      9.28213        -0.245608     -0.061384     -0.390297
O       5.83677     13.47893      9.30437        -0.172626      0.073179      0.282068
O       5.85022      5.77576      0.49741        -0.039516     -0.062985      0.524047
O       5.73814      5.81591     13.57994         0.114077     -0.186249     -0.628776
O       5.82054      5.78311      4.94634        -0.289950     -0.024075      0.105299
O       5.57405      5.75944      9.25610         0.477049     -0.079948      0.891179
O       5.77277      9.50483      0.57130         0.062834      0.014235      0.725302
O       5.71804      9.65054     13.59833         0.231770     -0.068346     -0.011075
O       5.65850      9.59274      4.82148        -0.026231      0.014846     -0.198610
O       5.63532      9.65867      9.22538         0.535501     -0.097568      1.245968
O       9.42526      2.02555      0.54695         0.773836     -0.455388     -1.934246
O       9.80306      1.75945     13.61882        -0.294589      0.457930     -0.168007
O       9.56341     13.38294      0.47121         0.452138      0.326085     -1.191694
O       9.48108     13.32085     13.66122         0.202766     -0.015419     -0.718875
O       9.55656      1.81786      4.95167         0.160307     -0.073810     -0.379429
O       9.53150     13.26083      4.79751         0.300337      0.612741      1.046462
O       9.63583      2.06379      9.26910        -0.009710     -0.363853     -0.972023
O       9.68565     13.35319      9.21299        -0.176685      0.155797      0.204419
O       9.56853      5.69707      0.54433         0.201126      0.414269     -0.264541
O       9.49307      5.90597     13.47239         0.008334     -0.230010     -0.750407
O       9.59191      5.68115      4.94134         0.223391      0.177647     -1.091902
O       9.67507      5.75933      9.28136        -0.444779      0.070991      1.389757
O       9.56634      9.63027      0.53857         0.080114     -0.323851     -0.535089
O       9.64342      9.63617     13.57388        -0.011665     -0.033954      0.314641
O       9.58080      9.70901      4.74336         0.512904     -0.171943      0.452776
O       9.37571      9.67575      9.20208         0.475411     -0.232997      0.173290
O       3.82295      1.89230      2.70648         0.348868      0.091169      0.136319
O       3.81299      1.94751     15.67468         0.671254      0.269707      0.655768
O       3.86631     13.52030      2.66634         0.092754     -0.185066      0.015450
O       3.82641     13.26168     15.72217        -0.103644      0.516562      0.418247
O       0.07793      1.97301      2.62769        -1.282606     -0.254907     -0.275314
O       0.01328      1.91486     15.82157        -0.348230     -0.364717      0.273491
O       0.07928     13.40007      2.68548        -1.458219     -0.343490      0.333997
O       0.04268     13.32926     15.80321         0.373279      0.287995      0.482855
O       3.87465      1.96510      6.95218         0.144458     -0.198407      0.252638
O       3.93108     13.50000      7.03206        -0.728521     -0.370555      0.342777
O      15.35242      1.90707      7.06413         0.325891      0.386030      0.016899
O       0.07531     13.49566      6.92031        -0.187735      0.347096      0.536900
O       3.85277      1.87131     11.47558        -0.101547      0.608518      0.180675
O       3.89508     13.33798     11.46291        -0.501516      0.400807      0.463828
O       0.00316      1.99436     11.41597         0.164493     -0.328725     -0.178818
O       0.06707     13.60580     11.29086        -0.607671     -0.636523      0.778820
O       3.89035      5.70539      2.72065        -1.127171      0.196611     -0.032101
O       3.83706      5.72232     15.63766         0.247893     -0.021459      0.517112
O      15.32119      5.71167      2.65653         0.574176     -0.129981      0.221611
O      15.28399      5.63403     15.72458         0.076167      0.527688      0.380361
O       3.80393      5.70468      7.11773         0.467660      0.247698     -0.317529
O       0.03951      5.73931      7.04429         0.139795      0.170257      0.473162
O       3.82600      5.64860     11.46532        -0.359639      0.404526      0.335320
O       0.07343      5.88940     11.33560        -1.096407     -0.212863      0.477551
O       3.80244      9.53228      2.57162         0.248537      0.064532      0.941150
O       3.91042      9.35375     15.67322        -0.471006      0.677058      0.490418
O      15.32332      9.58751      2.67346         0.108645      0.117462      0.447090
O       0.02786      9.60794     15.73944        -0.608332     -0.182144      0.209173
O       3.85112      9.68757      7.12604        -0.881232     -0.051857     -0.400853
O       0.01794      9.62518      7.03020        -0.442708     -0.156009      0.006378
O       3.75644      9.85147     11.43021         0.813562     -0.886120      0.211416
O      15.32657      9.57968     11.49798        -0.523810     -0.405024     -0.399428
O       7.63980      1.97539      2.71660         0.153746     -0.130747      0.070099
O       7.78166      1.84169     15.63206        -0.800048      0.067449      0.422957
O       7.75269     13.42557      2.52324        -1.727295     -0.091857      0.497278
O       7.67313     13.48082     15.85908         0.561977     -0.143459      0.443929
O       7.74901      1.84486      7.08716        -0.525649      0.334083      0.451844
O       7.72757     13.46402      7.03707         0.360551     -0.455282     -0.181346
O       7.61425      1.83990     11.44024         0.669247      0.481311      0.381087
O       7.72385     13.34299     11.33487        -0.818011      0.477538      0.617734
O       7.74304      5.81100      2.80251         0.280858     -0.379987     -0.323975
O       7.67847      5.71013     15.68063         0.375576      0.363032      0.105375
O       7.69679      5.82847      7.05639        -0.959753      0.032237      0.465630
O       7.56731      5.76069     11.37828         1.444499      0.405842      0.237759
O       7.65310      9.52021      2.66894         0.449707      0.195003      0.354727
O       7.76803      9.51447     15.70726        -0.735064      0.345164      0.099822
O       7.58380      9.65016      6.91902         1.169107     -0.132651      0.322480
O       7.67194      9.62282     11.46442        -1.029812     -0.002832     -0.171854
O      11.47121      1.77478      2.69024         1.192374      0.197473      0.075300
O      11.60704      1.92655     15.75733        -0.676823     -0.656001      0.539763
O      11.52295     13.51156      2.54905         0.664120      0.265847      0.462770
O      11.56016     13.27399     15.63747         0.686035      0.361888      0.803965
O      11.52989      2.06226      7.04961         0.408687     -0.611754     -0.033861
O      11.58598     13.39819      6.94408        -1.195989      0.284917      0.442281
O      11.57762      1.87921     11.43700        -0.727784     -0.344952     -0.185723
O      11.54982     13.47309     11.35363        -0.576608      0.045731      0.429633
O      11.52036      5.73628      2.63678         0.333120      0.274320      0.365666
O      11.50481      5.72386     15.54422         0.201950      0.552444      0.623803
O      11.55326      5.83366      6.98794        -0.230242      0.044892      1.068236
O      11.55548      5.85470     11.36160        -1.554677     -0.567539      0.541572
O      11.53557      9.49804      2.57492        -0.328713      0.059080      0.582587
O      11.53068      9.56848     15.83183         0.367717      0.250895     -0.048083
O      11.52638      9.58724      7.14132        -0.132401     -0.200292     -0.493967
O      11.49848      9.63491     11.46934        -0.121316      0.213738     -0.828731
O       1.90522      3.78439      2.73809         0.422394      0.948291     -0.410747
O       1.78730      3.86753     15.71761         0.974364     -0.705145      0.648636
O       1.79683     15.31232      2.76004         0.947610      1.338791     -0.270599
O       2.00012     15.30893     15.75765        -0.043610      0.328792      0.503251
O      13.36737      3.84720      2.65004         0.206441     -0.858821      0.052504
O      13.38475      3.77384     15.84225         0.318422      0.353518     -0.297843
O      13.56873     15.30624      2.65929        -0.250245      0.708416      0.145558
O      13.51279     15.29591     15.81758        -0.375383      0.482860      0.039167
O       1.95474      3.84770      6.94686        -0.178475     -0.543523      0.720525
O       1.94701      0.06215      7.05328         0.314825     -0.397373      0.095872
O      13.48909      3.85643      7.17776         0.054745     -0.193332     -0.151597
O      13.42945      0.02659      6.96152        -0.183070      0.952669      0.446291
O       1.83655      3.82606     11.35991         0.582986      0.297856      0.612780
O       1.97416      0.01587     11.37390         0.279765      0.384279      0.849263
O      13.32812      3.84792     11.34069         0.584810      0.316410      0.560663
O      13.52886      0.02080     11.34176        -0.559784      0.300663      0.503071
O       1.88083      7.64254      2.72682        -0.095268     -0.000234      0.363583
O       1.86554      7.60527     15.73446        -0.061342      1.009290      0.341125
O      13.56115      7.60089      2.65618        -0.680893      0.660765      0.681021
O      13.46002      7.67117     15.72658        -0.066729      0.081230     -0.005206
O       1.93953      7.69647      7.08830        -0.067003     -0.462339     -0.196001
O      13.56868      7.74298      7.00468        -0.129761     -0.891314      0.231927
O       1.98464      7.72145     11.37185         0.279305     -0.295732      0.232215
O      13.27091      7.68857     11.25640         1.057049      1.021351      0.363158
O       1.84489     11.52931      2.72013         0.757400     -0.423862     -0.217980
O       2.04227     11.40787     15.86883        -0.527142      0.374498     -0.058774
O      13.23181     11.47771      2.51214         1.060411      0.348851      0.595942
O      13.57925     11.52463     15.66487        -0.445056     -0.956181      0.733859
O       1.84456     11.52670      6.98782         0.783568      0.249455      0.457893
O      13.47329     11.56654      7.02069         0.110360     -0.617152      0.294540
O       1.74411     11.51702     11.44034         0.435821      1.107108      0.135462
O      13.48536     11.51371     11.36937        -0.033458      0.412382      0.433617
O       5.80745      3.89403      2.70062        -0.256594     -1.059231      0.359523
O       5.85159      3.88520     15.84764        -0.801897     -0.815717     -0.384020
O       5.81313      0.04696      2.57871        -0.261267     -0.206491      0.333002
O       5.70763     15.30267     15.77877        -0.262870      1.733837      0.217993
O       5.79903      3.82264      7.13254         0.284311      0.094373     -0.219550
O       5.80277     15.29203      7.04886         0.179548      0.811753      0.094093
O       5.83613      3.82979     11.46334        -0.551701     -0.313212     -0.019328
O       5.68680     15.30578     11.49994         0.305020      0.046758      0.409286
O       5.79126      7.55774      2.79145        -0.406688      1.533248      0.146785
O       5.89886      7.63948     15.75483        -0.174593      0.093037      0.044626
O       5.66625      7.73098      7.13996         0.255422     -0.645780     -0.241883
O       5.60971      7.73062     11.29939         0.091059     -0.300792      0.625310
O       5.77703     11.54422      2.59266        -0.161075     -0.206911      0.120679
O       5.80726     11.48507     15.91979        -0.070672     -1.098266      0.012171
O       5.77032     11.52324      7.08277         0.014645      0.573717     -0.220630
O       5.74398     11.53531     11.36389         0.442180     -0.296081      0.691486
O       9.66999      3.76465      2.70985        -0.096134      1.623193      0.401903
O       9.65816      3.94152     15.73408        -0.122387     -0.827721     -0.234483
O       9.54008     15.35967      2.61513         0.015735      0.447492      0.427708
O       9.70523     15.24740     15.61032         0.245613      0.792744      1.097816
O       9.65174      3.84384      6.93961        -0.497897     -0.443374      0.783302
O       9.73151     15.31816      7.13135        -0.427366     -0.231476     -0.548356
O       9.66869      3.75523     11.52860        -0.608152      1.163974     -0.082149
O       9.45124      0.02680     11.41077         0.855459     -1.100213     -0.030335
O       9.74503      7.73160      2.74024        -0.889075     -1.081272     -0.259150
O       9.59509      7.66750     15.83099         0.374055     -0.276800     -0.122942
O       9.60220      7.73389      6.92314         0.000659      0.147680      0.432912
O       9.53772      7.76324     11.38131         0.145181     -1.185494     -0.067057
O       9.63742     11.52055      2.55815         0.012207     -0.407182      0.553650
O       9.57369     11.49546     15.89121         0.162738     -1.178013     -0.132526
O       9.75453     11.46550      6.99871        -0.746750      0.753343     -0.089768
O       9.60442     11.53802     11.44025         0.126710     -0.361975     -0.108035
