  # total energy = -7864.03775130 
CRSYTAL
PRIMVEC
    15.010000000000000    0.0000000000000000    0.0000000000000000
     0.0000000000000000   15.010000000000000    0.0000000000000000
     0.0000000000000000    0.0000000000000000    16.400000000000000
PRESSURE
16.9927 17.1287 8.60149 -0.066551 -0.233999 0.033199
PRIMCOORD
320 1
Pb       3.61752      3.60610      4.10814         0.282547      0.346838     -0.552012
Pb       3.76858      3.72518     16.30249        -0.030666     -0.060293      1.111809
Pb       3.82314     14.92979      4.17974        -0.784092      0.137408      0.015823
Pb       3.78006      0.06082     16.34691        -0.272152     -0.079023      0.420350
Pb      14.97390      3.79230      4.25238         0.415230     -0.348748     -0.804353
Pb      14.92695      3.84781      0.05862         0.171979     -1.082231     -0.004535
Pb      14.95167     14.98349      4.26153         0.353590     -0.345127     -0.322793
Pb      15.00857      0.03736     16.24185         0.515823      0.304471      1.095830
Pb       3.81240      3.69704      8.14211        -0.198247      0.211352      0.238631
Pb       3.86111     14.98922      8.33843        -0.206419     -0.463866     -0.465573
Pb       0.08392      3.68973      8.06598        -0.189116      0.386820      1.072370
Pb       0.16047     14.99876      8.29591        -0.334737     -0.488959     -0.787395
Pb       3.99113      3.73981     12.35076        -1.003807      0.093088      0.560995
Pb       3.74458      0.01869     12.32023         0.231623     -0.018524     -0.245188
Pb       0.01813      3.77073     12.27386        -0.110277     -0.300342     -0.330625
Pb      14.93949     14.99789     12.24455         0.201404      0.161028      0.177810
Pb       3.59129      7.68080      4.21794         0.297736     -0.664653     -0.704682
Pb       3.77202      7.54299     16.36122         0.082440     -0.225898      0.374664
Pb      14.85909      7.53536      4.13508        -0.030693     -0.155528     -0.244147
Pb      14.94465      7.46089      0.02751        -0.261959      0.419850      0.464385
Pb       3.67784      7.51982      8.33292         0.031176     -0.110646     -0.640956
Pb      15.00155      7.46634      8.07472        -0.060732      0.231181      0.285570
Pb       3.77260      7.32668     12.40772         0.016668      0.101307     -0.412347
Pb       0.07721      7.49399     12.24602        -0.539889      0.023005      0.370852
Pb       3.60074     11.23426      3.98797         0.150736      0.116442      0.002911
Pb       3.67961     11.30315      0.07423         0.051908      0.061298      0.688279
Pb      14.82193     11.20297      4.21866         0.230092      0.390634     -1.010909
Pb      14.95776     11.24316     16.39171         0.188915     -0.339546      0.932979
Pb       3.53543     11.16678      8.25523         0.841845      0.434740      0.188752
Pb      14.93981     11.15001      8.15632        -0.191036      0.290666      0.435760
Pb       3.69606     11.12482     12.49076         0.219434      0.593103     -0.732388
Pb      14.98105     11.18336     12.30780        -0.464144     -0.042160     -0.249718
Pb       7.44862      3.81684      4.29337         0.141500     -0.186437     -0.768432
Pb       7.49531      3.75461      0.12963         0.106008      0.198517      0.369645
Pb       7.47402      0.06761      4.25961         0.356270     -0.754566     -0.938442
Pb       7.59473      0.03921     16.39849        -0.066380     -0.164422      0.818462
Pb       7.61860      3.81818      8.21305        -0.086338     -0.227861      0.206610
Pb       7.41056     14.82268      8.34029         0.606204      0.397402      0.018632
Pb       7.59961      3.63697     12.39141        -0.628043      0.376834      0.011892
Pb       7.51326      0.02400     12.28831         0.068951     -0.300384     -0.606165
Pb       7.36898      7.46781      4.20096         0.200719      0.369968     -0.591305
Pb       7.48951      7.41658      0.09357        -0.194665      0.177483      0.580021
Pb       7.50428      7.50253      8.08624         0.004034     -0.532650      1.050891
Pb       7.58833      7.45117     12.34304        -0.029414      0.245569      0.075173
Pb       7.14914     11.23978      4.18422         1.448289      0.278702     -0.565051
Pb       7.40405     11.28591      0.03353         0.046625     -0.110432      1.415440
Pb       7.37248     11.09561      8.27759         0.352705      0.375516      0.207521
Pb       7.51975     11.20192     12.51121         0.194243      0.182271     -0.966932
Pb      11.42082      3.68229      4.23336        -0.999755      0.306684     -0.276597
Pb      11.32775      3.85005      0.06334        -0.731615     -0.762655      0.300247
Pb      11.28434      0.01051      4.22792        -0.319029     -0.122575     -0.666887
Pb      11.34440      0.10653     16.33219        -0.603102     -0.250588      0.942724
Pb      11.43646      3.73644      8.25289        -0.925009      0.723658     -0.307115
Pb      11.34249     14.91435      8.22080        -0.807821     -0.537588     -0.365769
Pb      11.33145      3.75578     12.27087        -0.071082     -0.081733      0.071127
Pb      11.31522     14.86700     12.30796        -0.792715     -0.112067      0.274260
Pb      11.12271      7.46242      4.14897         0.074351      0.370204      0.530720
Pb      11.24323      7.42318      0.09071        -0.636478      0.467832     -0.051891
Pb      11.22456      7.53234      8.13976        -0.124282     -0.222507      0.480607
Pb      11.23730      7.45322     12.42545        -0.167753      0.323374     -0.768514
Pb      11.05062     11.34257      4.22006         0.329491     -0.543397     -0.037393
Pb      11.10844     11.34447      0.01846         0.033700      0.075382      0.461990
Pb      11.13256     11.22760      8.21137         0.337433      0.015820     -0.045788
Pb      11.26576     11.16128     12.43011        -0.310204      0.193166     -0.868553
Ti       1.77780      1.86000      2.01827         1.178110      0.604887     -0.337985
Ti       1.87652      1.94846     14.31828        -0.389722     -0.712627      0.646997
Ti       1.78151     13.22729      2.09412         0.049964     -1.425628     -0.259243
Ti       1.87567     13.12947     14.32787         0.147328      0.748353      0.496338
Ti      13.16093      1.92014      2.20134        -1.653295     -1.477925     -0.895162
Ti      13.14861      1.88517     14.33464         0.108674      0.887136     -0.303838
Ti      13.10610     13.08609      1.97670        -0.565787      0.127695      1.125991
Ti      13.15512     13.05257     14.45303        -1.153665      1.419242     -1.098697
Ti       1.93904      1.86223      6.22760        -0.544545     -1.375661     -0.942349
Ti       1.95602     13.08517      6.20436        -0.916843      0.951929     -0.778781
Ti      13.17033      1.84181      6.25990        -0.686953     -0.779927     -0.314670
Ti      13.14919     13.06705      6.22265        -0.231369      0.773908      0.736302
Ti       1.91167      1.86975     10.26296        -0.496322      0.561057      0.649118
Ti       1.81183     13.11479     10.27281         1.305960     -0.882679      0.193848
Ti      13.06436      1.81639     10.16724         1.743479      0.496875      1.627090
Ti      13.11787     13.06853     10.23906        -0.233051     -1.130016     -0.526481
Ti       1.82494      5.64574      2.04125         0.405872     -0.645293      1.298727
Ti       1.86664      5.64286     14.47690         0.187121     -1.374320     -0.721107
Ti      13.03907      5.62372      2.10250         0.101618      0.631227      0.088441
Ti      13.13434      5.65521     14.36682        -0.425617     -1.257927      0.013320
Ti       1.90878      5.57280      6.09358         0.193174      0.934727      0.030072
Ti      13.19221      5.58151      6.19868        -1.685679      1.203971     -0.230436
Ti       1.85355      5.61939     10.20071         0.000544     -0.065073     -0.867630
Ti      13.10363      5.64182     10.22426        -0.733927     -0.293361      0.162609
Ti       1.66718      9.32463      2.06847         0.428967      1.106177      0.296230
Ti       1.82466      9.34894     14.42997        -0.231084      0.659818      0.025085
Ti      12.89061      9.30771      2.04584         2.137842      1.020687     -0.254368
Ti      13.06219      9.32429     14.38046        -0.287915     -0.018371     -0.063381
Ti       1.78296      9.40107      6.13297         0.480806     -0.953665      0.010717
Ti      12.98597      9.37798      6.14064         0.723059     -0.265747      0.717459
Ti       1.90874      9.35790     10.35404        -0.485301      0.040456     -0.397989
Ti      13.11369      9.27351     10.25650        -0.338395      1.149415     -0.511722
Ti       5.61548      1.87876      2.21119         0.187286     -0.070047     -0.979223
Ti       5.69721      1.85692     14.47137         0.446167      0.182131     -0.461355
Ti       5.55854     13.13459      2.10098         0.770367      0.158189     -0.023630
Ti       5.59600     13.17405     14.41460         0.341560     -1.289213     -0.900530
Ti       5.70602      1.79650      6.18951        -0.843297     -0.239142     -0.406538
Ti       5.63817     13.06096      6.24460        -0.602094      0.197985      0.553888
Ti       5.66422      1.91117     10.24726         0.286102     -0.714412      0.799163
Ti       5.59961     13.01695     10.34608         0.444593      0.109391     -0.038240
Ti       5.51967      5.60907      2.15584         0.639087     -0.222879     -0.355564
Ti       5.70491      5.59133     14.40114         0.612955      0.329048     -0.226763
Ti       5.59906      5.57940      6.21666        -0.392829     -0.228220     -0.432487
Ti       5.62454      5.60090     10.23834        -0.032486      0.360001      0.779655
Ti       5.53042      9.29366      2.03955         0.264081      0.991592      0.155102
Ti       5.60457      9.39788     14.42540         0.496536     -0.369396      0.647767
Ti       5.52086      9.31204      6.24112         0.734404      0.840050      0.768847
Ti       5.63835      9.26560     10.31261        -0.102919      1.204050     -0.960788
Ti       9.32989      1.90957      2.13362         0.928150     -0.943716      0.335200
Ti       9.43613      2.00297     14.30551         0.215193     -1.354119      0.616297
Ti       9.39919     13.15237      2.22782        -1.353931      0.026210     -0.553968
Ti       9.29652     13.16351     14.40102         1.507476      0.602527     -0.681311
Ti       9.37575      1.89397      6.20787         0.686191     -1.015583      0.178732
Ti       9.31459     13.13190      6.20548         0.536863      0.588843      1.450139
Ti       9.39865      1.85468     10.15898        -0.531425     -0.891481      0.773016
Ti       9.36579     13.02022     10.23721        -0.219224      0.910619      0.162314
Ti       9.33099      5.63484      2.18541        -0.322410     -0.470726     -0.639591
Ti       9.40342      5.66034     14.43971        -0.469613      0.084633      0.026629
Ti       9.42705      5.63778      6.17041        -0.168336     -0.364841     -0.270887
Ti       9.30078      5.55156     10.35377         1.543421      0.790566     -0.620181
Ti       9.28669      9.45515      2.13488        -0.576415     -0.333584      0.443829
Ti       9.30929      9.40058     14.48880         0.889863     -1.290250     -0.541235
Ti       9.21505      9.37701      6.14189         1.234976      1.047168     -0.549319
Ti       9.33653      9.33027     10.24640         0.978563     -0.268186      0.432073
O       1.86648      1.97067      0.15941         0.164015     -0.418490      0.774562
O       1.84297      1.88309     12.53873        -0.524617      0.240987     -1.309627
O       2.03903     13.12371      0.26011        -0.846667      0.138656     -0.487926
O       1.82147     13.16832     12.53683        -0.099086     -0.271432     -0.471632
O      13.04220      1.82303      0.37850         0.423523      0.656212     -0.613442
O      13.18021      1.93326     12.51198         0.011997     -0.052163     -0.309799
O      13.03739     13.19660      0.16898         0.418487     -0.327815     -0.538210
O      13.08098     13.01069     12.50318         0.190367      0.342749      1.138244
O       1.94212      1.72709      4.37905        -0.641378      0.601133      0.165600
O       2.00062     13.17702      4.34051        -0.637847     -0.250424      0.216840
O      13.27269      1.79550      4.39239        -0.399622      0.536751     -0.173496
O      13.17619     12.97055      4.44042        -0.387240      0.098931     -1.683269
O       2.01818      1.95654      8.42627        -0.422171     -0.648946      0.694456
O       1.83289     13.09025      8.43623         0.426187     -0.337983     -0.035460
O      13.21922      1.79029      8.38512        -0.477127      0.279376      0.114317
O      13.14067     13.10020      8.37157        -0.039153      0.300217      1.519496
O       1.82127      5.41235      0.24041         0.213511      0.834977     -0.778931
O       1.83495      5.66028     12.64648         0.053110      0.075953     -0.539994
O      13.04253      5.64144      0.19747         0.237408      0.231424      0.842663
O      13.01294      5.61476     12.55951         0.483237     -0.062044     -0.601969
O       1.93609      5.64616      4.24435        -0.303054     -0.290845      0.535883
O      13.11150      5.58660      4.37800         0.244083      0.087024     -0.840697
O       1.89784      5.77029      8.33344        -0.214461     -0.608472      1.223038
O      13.12433      5.73967      8.41033        -0.154529     -0.405015     -0.404553
O       1.72993      9.30593      0.24688         0.315621      0.173390     -1.163693
O       1.77884      9.35064     12.58316         0.382156     -0.183697     -0.032038
O      12.99853      9.10009      0.18534         0.223335      0.627173     -0.116973
O      13.12635      9.35724     12.50853         0.088365      0.208896      0.518451
O       1.84442      9.33450      4.30739        -0.299971      0.033532     -0.228574
O      13.06859      9.46226      4.33028         0.224175      0.010901     -0.187083
O       1.74515      9.39247      8.50596         0.751820     -0.155250     -0.499910
O      13.22372      9.38377      8.38208        -0.420771     -0.583075      0.383861
O       5.67530      1.69211      0.22005        -0.207683      0.636437      0.006734
O       5.92787      1.87026     12.58339        -0.711864      0.132967      0.280537
O       5.52035     13.13067      0.25080        -0.171390      0.224589      0.148227
O       5.71383     13.12440     12.53920         0.074469     -0.377859      0.036541
O       5.71247      1.96334      4.29745        -0.434155     -0.356195      0.636095
O       5.54745     13.10728      4.44863        -0.145100     -0.316258     -1.197008
O       5.50257      1.88752      8.44406         0.215829     -0.580727     -0.059653
O       5.50558     13.17761      8.45056         0.650990     -0.058609      0.164501
O       5.71209      5.64903      0.26583        -0.181609     -0.151655      0.109482
O       5.52205      5.60295     12.53220         0.797688      0.329369      0.071636
O       5.57058      5.48582      4.39305        -0.080216      0.343404     -0.280595
O       5.58394      5.63491      8.46217         0.014079     -0.146564     -1.003210
O       5.50949      9.34819      0.19815         0.028985     -0.233525     -0.006952
O       5.61241      9.48334     12.61685         0.329813     -0.470286     -0.854238
O       5.65987      9.40450      4.45424        -0.421739     -0.535806     -0.979570
O       5.66985      9.30107      8.39017        -0.263417      0.126271      0.876351
O       9.47618      1.75731      0.30103        -0.292331      0.431287     -0.450901
O       9.36163      1.91420     12.50993         0.077695     -0.220289     -0.248884
O       9.52259     13.15652      0.37750        -0.702743     -0.442697     -0.662597
O       9.38259     13.01807     12.56569        -0.324190      0.429409      0.153329
O       9.38777      1.79126      4.38622        -0.155815      0.199002     -0.230424
O       9.32005     13.23172      4.44715         0.434835     -0.197309     -1.208164
O       9.36737      1.99249      8.38118         0.167410      0.007587     -0.250652
O       9.42254     13.16961      8.41047        -0.249827     -0.405409     -0.241387
O       9.25255      5.55315      0.21257         0.404022      0.112141      0.644925
O       9.48453      5.77414     12.54054        -0.655793     -0.440378      0.371033
O       9.50032      5.63194      4.30087        -0.653766     -0.229313      0.535168
O       9.42324      5.56836      8.50715        -0.278301     -0.108425     -0.866051
O       9.45870      9.55807      0.29684        -0.382955     -0.567016     -0.412301
O       9.27830      9.34980     12.62145        -0.127893     -0.295840     -0.386103
O       9.31671      9.28019      4.32963        -0.286169      0.073822     -0.109425
O       9.27409      9.34258      8.42547         0.246317      0.219769     -0.435559
O       3.75280      2.02210      2.22485        -0.351331      0.220050      0.291478
O       3.79823      1.60502     14.39747         0.074394     -0.068497      0.635313
O       3.65574     12.86147      2.33140         0.695313      0.342771      0.061954
O       3.75558     13.30459     14.45268        -0.418301      0.997340      0.388984
O      14.98013      1.69340      2.39704         0.381723     -0.129543     -0.025167
O       0.00207      2.18510     14.70861        -0.122544      0.199600     -0.288615
O      14.90184     13.35977      2.32720         1.111318     -0.435368      0.088111
O       0.00820     12.89570     14.69778        -0.187828     -0.181755     -0.287453
O       3.72637      2.07595      6.36553         1.428359     -0.110404      0.139261
O       3.77200     12.78557      6.44170        -0.606497      0.179004      0.293166
O      14.99962      1.84855      6.54984         1.213684     -0.421273     -0.288573
O      15.00771     13.22846      6.34903         1.059815     -0.100803      0.345270
O       3.77066      2.09087     10.77341         0.044545     -0.414169     -1.262416
O       3.76445     12.89463     10.47412        -0.516725      0.047632      0.460536
O      14.99767      1.58166     10.51384         0.411398      0.550496     -0.533754
O       0.01487     13.45100     10.38120        -1.126534     -0.728715      0.478337
O       3.73745      5.21883      2.22949        -0.309977      0.853945     -0.084851
O       3.87905      5.83228     14.60448        -2.235555      0.249369      0.518646
O      14.95298      5.96908      2.23252         0.123331     -0.628130      0.064609
O      14.96473      5.24984     14.62208         0.897064      0.766103     -0.110774
O       3.75027      5.33494      6.45287         0.151508      0.165600     -0.292975
O      15.00869      5.73109      6.34575         1.409480     -0.147313      0.111165
O       3.66221      5.29340     10.55836         1.113453      0.234469     -0.232999
O      14.91398      6.05953     10.43638         1.684815     -0.459262      0.233262
O       3.68648      9.44187      2.37775        -0.380870      0.377362     -0.175392
O       3.72507      9.11298     14.49187         0.044608     -0.258977      0.497725
O      14.84320      9.03921      2.26517         0.827195     -0.156485      0.149353
O      14.94912      9.67490     14.57927         0.373771     -0.168775      0.154725
O       3.73644      9.54423      6.40053        -1.183456      0.132725      0.312435
O      14.99723      9.25384      6.27573        -0.797734     -0.218258      0.365705
O       3.77553      9.62403     10.50084        -0.356831      0.060871      0.238580
O       0.01792      9.10988     10.50759        -0.364821     -0.215852      0.380159
O       7.48481      1.54335      2.32559         0.476612      0.130514     -0.254041
O       7.59627      2.29688     14.67571        -0.221220     -0.834327     -0.153784
O       7.42063     13.20200      2.42876        -0.150196      0.546457     -0.441238
O       7.51939     12.87275     14.84096        -0.702952      0.013478     -0.828994
O       7.51444      1.50093      6.37092         0.133360      0.345774      0.303715
O       7.48452     13.52118      6.38027         0.167566     -0.416884      0.434242
O       7.52464      1.71960     10.39154        -0.327070     -0.661413      0.117709
O       7.52487     13.35128     10.35714        -0.852916      0.047904      0.442689
O       7.50955      5.94714      2.38591        -0.666233     -0.594646      0.170636
O       7.54354      5.19386     14.57671         0.004889      0.482402     -0.158362
O       7.44984      5.74058      6.29604         1.152501      0.056019      0.577855
O       7.50023      5.99932     10.46585        -0.788988     -0.411906      0.249693
O       7.44089      9.07934      2.34067         0.022742     -0.011323     -0.211285
O       7.51967      9.68368     14.75848        -1.822315      0.028350     -0.386334
O       7.47724      9.12584      6.49204        -1.151550      0.271167     -0.397140
O       7.48208      9.02542     10.47667        -0.154774     -0.009975      0.438234
O      11.25905      2.19134      2.44186         0.156679     -0.780985      0.020638
O      11.31290      1.51777     14.43184        -0.910032      0.106975      0.418434
O      11.22942     12.84044      2.49012         0.649243     -0.254940     -0.304261
O      11.19219     13.39905     14.63196         0.722101      0.012734     -0.434813
O      11.30930      2.24211      6.33661        -0.012402     -0.898659      0.339873
O      11.26265     12.92505      6.46062        -0.783969      0.247360     -0.149645
O      11.27210      2.26744     10.27003         0.120036     -0.722637      0.720945
O      11.21079     12.90112     10.42077         1.498198     -0.189662      0.366057
O      11.20493      5.26217      2.26713         0.604253      0.408146     -0.037929
O      11.27136      5.97658     14.64871        -0.621210     -0.113113     -0.087860
O      11.23046      5.46518      6.37347         0.389017      0.057889      0.496362
O      11.20409      5.24181     10.49180         0.664266      0.575077     -0.200443
O      11.17911      9.65144      2.38471        -1.031467      0.079350      0.195861
O      11.21861      9.02923     14.47588         0.052163      0.177234      0.600120
O      11.18108      9.45148      6.29830         0.150784      0.518711      0.863627
O      11.23672      9.62435     10.36377        -0.121014      0.271896      0.419113
O       1.70631      3.70878      2.37250        -0.776354      0.368418      0.330513
O       2.16960      3.74925     14.60569         0.101435      0.790847     -0.343657
O       2.02827     15.00518      2.26136         0.264046      0.639520      0.101658
O       1.59108      0.05028     14.50833         0.427601     -1.004821      0.405585
O      13.33463      3.84165      2.45831         0.587013     -1.279763     -0.135373
O      12.78715      3.75055     14.65606         0.458423     -0.034203     -0.234910
O      12.88525     14.91853      2.24950        -0.338589      1.195433      0.802159
O      13.54195      0.06360     14.57184        -1.218370     -1.312593     -0.511312
O       1.75544      3.71973      6.48894        -0.134815      0.729789     -0.599245
O       1.98482     14.96635      6.46843         0.222991      0.303453      0.427517
O      13.33762      3.77154      6.40605        -0.095680     -0.810522      0.274898
O      13.11272     14.97946      6.40727        -0.765121      0.794409      0.069024
O       1.55743      3.78722     10.33595        -0.204736     -0.652040      0.614064
O       2.05277     14.97090     10.41466         0.653372      1.102065      0.275451
O      13.42121      3.80289     10.44456        -0.059117     -1.205112     -0.045275
O      12.92623     14.93701     10.61842        -0.169037      1.372993     -0.577125
O       2.07167      7.50032      2.25206         0.268538     -1.356066      0.095153
O       1.67057      7.46406     14.70173        -0.103324      0.607411      0.015715
O      12.78839      7.48637      2.46062        -0.053013     -1.022860     -0.272893
O      13.36404      7.47561     14.52469         0.662366      0.701318      0.056191
O       2.05297      7.43457      6.28610        -0.011124      1.035515      0.367751
O      13.07008      7.44317      6.38065        -0.358691      1.645664      0.067311
O       2.29112      7.47419     10.42840        -0.842429      0.293101      0.762617
O      12.71260      7.51080     10.48366         0.353547     -0.697641      0.102523
O       1.56103     11.19309      2.23199         0.107641      0.414585      0.452280
O       2.23954     11.26139     14.64185        -1.192985     -0.754745     -0.464937
O      13.33294     11.13327      2.10697         0.175482      1.092575      0.220153
O      12.76811     11.30140     14.68101         0.583296     -1.624820     -0.278274
O       1.65786     11.22019      6.38813         0.250446      0.038702      0.242745
O      13.23898     11.25740      6.55084         0.096273     -2.070080     -0.528285
O       1.67086     11.21782     10.66022        -0.087621      0.583193     -0.368985
O      13.27967     11.20355     10.46989         0.826269      0.632798      0.198753
O       5.90626      3.74914      2.37141         0.077610     -0.122574     -0.392315
O       5.37413      3.69897     14.56300         0.169795      0.270558      0.289626
O       5.39584     15.00090      2.47838        -0.004181     -0.782009     -0.609847
O       5.87995     14.94534     14.57933         0.428652      1.499538      0.174170
O       5.90826      3.57055      6.49781        -0.366225      2.474516      0.056603
O       5.36005     14.95404      6.34780        -0.507099      0.696992      0.567637
O       6.02413      3.80554     10.45320        -0.936290     -0.917019      0.490756
O       5.48443      0.01635     10.60115        -0.292065      0.105977     -0.515192
O       5.37647      7.49393      2.36329        -0.271084     -1.213172      0.347627
O       5.96895      7.48113     14.61061        -0.357564      0.433308     -0.151120
O       5.46496      7.46583      6.43805        -0.261673     -0.857083     -0.230064
O       5.29125      7.46651     10.42853        -0.289014     -0.324613      0.714013
O       5.69975     11.17345      2.33943        -0.151638      0.573233     -0.037569
O       5.29844     11.30445     14.66068         0.678253     -1.327700     -0.006278
O       5.97542     11.25930      6.43001        -0.510930     -1.091388      0.209487
O       5.90893     11.15544     10.35630        -0.001799      1.081859      0.743858
O       9.06385      3.69510      2.29998        -0.223271      0.755273      0.231641
O       9.82170      3.82034     14.53463        -0.204244     -0.844891      0.027977
O       9.63540     14.92324      2.45062        -0.112648      1.546626     -0.039213
O       8.96910      0.03441     14.52171         0.757844     -0.075861     -0.164283
O       9.14230      3.74704      6.37391        -0.132529      0.710232      0.032648
O       9.72412      0.06255      6.53903        -0.111610     -0.476333     -0.375572
O       9.05589      3.69119     10.60804         0.509838      0.739528     -0.535240
O       9.61781     14.95911     10.45415         0.121670      1.400719      0.276405
O       9.69172      7.43637      2.33631        -0.261267      1.183788     -0.558423
O       8.93438      7.48716     14.72916         1.036652     -0.005109     -0.581981
O       9.53053      7.55716      6.35400        -0.322785     -2.049317      0.596422
O       9.66640      7.50089     10.42672        -0.010914     -0.432586      0.524885
O       9.00018     11.23144      2.51309         0.971651     -0.026631     -0.209755
O       9.60712     11.19687     14.48857         0.351651      1.639508      0.790544
O       9.03981     11.27757      6.39599         0.685452     -0.282754      0.045394
O       9.08756     11.22343     10.54194        -0.078519     -0.676388      0.127752
