  # total energy = -7882.47598812 
CRSYTAL
PRIMVEC
    15.3600000000000000    0.0000000000000000    0.0000000000000000
     0.0000000000000000   15.3600000000000000    0.0000000000000000
     0.0000000000000000    0.0000000000000000    17.440000000000000
PRESSURE
0.388475 0.287088 3.90229 0.28778 0.277925 -0.012264
PRIMCOORD
320 1
Pb       3.80799      3.75874      4.39239         0.351991      0.297052     -0.341321
Pb       3.83589      3.73227     17.40425        -0.113979      0.083077     -0.266855
Pb       3.76287     15.29312      4.41215         0.135508      0.124746     -1.015230
Pb       3.72140     15.30438     17.33701         0.399571      0.144294     -0.410026
Pb       0.06645      3.73981      4.35380        -0.396411      0.135093     -0.312952
Pb       0.13322      3.85921      0.04320        -0.357072     -0.154282     -0.841333
Pb       0.06528     15.29344      4.29896        -0.290724      0.297148     -0.266160
Pb      15.18478     15.25831     17.43377         0.565492      0.157751     -0.134177
Pb       3.72411      3.85304      8.74866         0.086812     -0.190709     -0.937870
Pb       3.84605      0.02278      8.72295         0.069245      0.092247     -0.570062
Pb      15.17784      3.97882      8.69931         0.338956     -0.281236     -0.191053
Pb      15.19417      0.09388      8.77740         0.218234     -0.131904     -1.072175
Pb       3.79817      3.75786     12.93673         0.041911     -0.232566      0.181500
Pb       3.70371     15.32758     12.89525         0.564716      0.139323      0.241335
Pb       0.04060      3.70628     13.12660        -0.568462      0.533977     -0.917962
Pb      15.35482     15.30055     13.01897        -0.305622     -0.079096     -0.306857
Pb       3.84166      7.64206      4.31884         0.131129      0.155795     -0.094018
Pb       3.71276      7.53880     17.37634         0.438214      0.500029     -0.242776
Pb       0.12471      7.79463      4.31617        -0.212255     -0.539579     -0.285154
Pb      15.19435      7.63884     17.38546         0.344069      0.181098     -0.399631
Pb       3.86862      7.71463      8.73350        -0.086929      0.004192     -0.800613
Pb      15.34026      7.66209      8.71824         0.129872     -0.254903     -0.614711
Pb       3.78674      7.55400     12.98572         0.047149      0.939292     -0.019500
Pb       0.01191      7.59220     13.15320        -0.229802     -0.003698     -0.750305
Pb       3.74960     11.54116      4.32363         0.088489     -0.295851     -0.444173
Pb       3.88480     11.47419     17.34479        -0.122267      0.309243     -0.145907
Pb      15.32324     11.60024      4.28746         0.348800     -0.080532      0.172859
Pb      15.21871     11.53022     17.31148         0.305699     -0.246454     -0.363015
Pb       3.81479     11.53936      8.72623         0.667402     -0.079011     -0.390190
Pb      15.26793     11.41033      8.75924        -0.082706      0.469733     -1.090737
Pb       3.85506     11.43755     12.97339         0.145818     -0.013816      0.052703
Pb       0.14751     11.51699     13.09531        -0.262696      0.027082     -0.459559
Pb       7.73002      3.66396      4.37467        -0.414095      0.541636     -0.712146
Pb       7.57064      3.82543      0.00847         0.280430     -0.223851     -0.364679
Pb       7.75840     15.30536      4.40509        -0.563022     -0.393399     -0.487353
Pb       7.53966     15.32912     17.40069         0.244928      0.063039     -0.373766
Pb       7.65434      3.86473      8.66657        -0.079842     -0.459856     -0.489183
Pb       7.65215     15.31083      8.65063         0.014502      0.423834     -0.101499
Pb       7.81819      3.97371     13.13502         0.097739     -0.452112     -0.762653
Pb       7.56214      0.18454     12.98906         0.619936     -0.159387     -0.509184
Pb       7.69765      7.53779      4.31163        -0.031165      0.393793     -0.460736
Pb       7.53386      7.71396     17.43092         0.267163     -0.150880     -0.568165
Pb       7.65438      7.74145      8.69118         0.181046      0.043988     -0.701813
Pb       7.60124      7.66631     12.96656         0.503661     -0.002168     -0.037122
Pb       7.70895     11.42887      4.39047         0.057252      0.078926     -0.687754
Pb       7.57965     11.55091     17.40188         0.148462      0.111135     -0.044061
Pb       7.63974     11.54735      8.68048         0.250127     -0.052888     -0.709406
Pb       7.73361     11.52503     12.98326         0.102827      0.096032     -0.381725
Pb      11.44890      3.73221      4.28777         0.390159      0.398137     -0.393063
Pb      11.63352      3.80453      0.07965        -0.307570     -0.026925     -0.754360
Pb      11.52840     15.23221      4.33073         0.917042      0.404302      0.272968
Pb      11.34957     15.24757      0.04213         0.210952      0.457618     -1.061333
Pb      11.40387      3.99230      8.69826         0.756728     -0.448710     -0.898068
Pb      11.45551     15.34338      8.67660         0.398741      0.346452     -0.636005
Pb      11.59270      3.71106     13.24086         0.267758      0.016915     -0.873625
Pb      11.53309     15.33772     13.01202         0.043155      0.099319      0.051654
Pb      11.47759      7.67924      4.22471         0.113721     -0.199223     -0.518039
Pb      11.48928      7.62517      0.05725         0.014743     -0.154406     -0.743150
Pb      11.52587      7.69960      8.69163         0.189834     -0.363445     -0.429950
Pb      11.42262      7.62666     13.11511         0.524040     -0.023500     -0.555847
Pb      11.56247     11.42684      4.29735        -0.247272      0.294990     -0.115152
Pb      11.33707     11.45596     17.40407         0.316601      0.321368     -0.691356
Pb      11.57383     11.52014      8.70727        -0.176153      0.254672     -0.591926
Pb      11.53064     11.46132     13.02922         0.100958      0.028201     -0.466754
Ti       1.89778      1.93896      2.24614        -0.331856     -0.732309      1.556134
Ti       1.89158      1.87655     15.36633        -0.161782      0.196495      2.856148
Ti       1.90532     13.39180      2.19211        -0.155259      0.662537      1.577467
Ti       1.92033     13.43323     15.33135         0.032110      0.463179     -0.195966
Ti      13.42074      1.87915      2.27213         0.048190     -0.546778      2.057929
Ti      13.41915      1.87438     15.49501        -0.628658      0.413609     -0.445349
Ti      13.36068     13.31239      2.24217         0.649520      1.599069      1.831834
Ti      13.41478     13.48072     15.25945        -0.808828     -0.205315      1.412981
Ti       1.89797      1.87921      6.61985        -0.870352      0.028853      1.288584
Ti       1.97016     13.38435      6.72391        -1.907369      1.053949      1.059981
Ti      13.47756      1.99872      6.63390        -0.438743     -0.824576      1.526678
Ti      13.46383     13.44473      6.62466         0.541833      0.171355      2.608991
Ti       1.85413      1.90113     10.93124        -0.070950      0.790393      0.621942
Ti       1.97384     13.42611     10.89461        -0.856692     -0.088610      2.062219
Ti      13.44694      1.90995     10.99140        -0.622689      0.616016      1.107332
Ti      13.49851     13.37799     10.99105        -0.599436      0.447808      2.242549
Ti       1.94875      5.74639      2.28970        -0.779906      0.113962      2.476208
Ti       1.91238      5.75654     15.32532        -0.558806     -0.629173      1.921947
Ti      13.49970      5.71128      2.27537        -0.096763      0.401932      0.938027
Ti      13.46197      5.76698     15.29764        -0.451464     -0.334314      2.146038
Ti       1.95770      5.72215      6.55135        -0.843962      0.103062      1.472369
Ti      13.48522      5.83804      6.56143        -0.351668     -1.300955      1.859133
Ti       1.98017      5.77240     11.00136        -2.501938     -0.186492      2.839075
Ti      13.43883      5.78806     11.06925         0.598565     -0.879553      0.322282
Ti       1.97794      9.58977      2.18906        -0.370283      0.268011      1.030410
Ti       1.99299      9.57436     15.39601        -0.826204      0.162629      1.416554
Ti      13.51388      9.52817      2.27274        -0.290938      0.231187      1.006695
Ti      13.40665      9.62010     15.34699         0.582808     -0.212991      1.637162
Ti       1.96628      9.59716      6.77567        -0.385507     -0.392664      1.010025
Ti      13.43454      9.55080      6.58112         0.891227      1.261520      1.318845
Ti       1.94557      9.62414     10.95379         0.159731     -0.767289      3.179357
Ti      13.53850      9.55925     11.07187        -0.701639     -0.496820      1.411769
Ti       5.68263      1.84539      2.35620         0.299798      0.129366      2.112727
Ti       5.76646      1.92051     15.23202        -0.539989     -0.123566      0.767058
Ti       5.71038     13.37500      2.29681         0.699358      0.453242      0.845194
Ti       5.75898     13.45835     15.19842        -0.449621      0.231697      2.550054
Ti       5.69465      1.93092      6.60530         0.613535      0.186560      1.498277
Ti       5.71497     13.45519      6.59090         0.749644      0.068104      1.916746
Ti       5.72052      1.97433     10.98957         1.136797     -1.035839      0.471782
Ti       5.78673     13.43306     11.00595         0.068051      0.368890      0.845214
Ti       5.75079      5.69998      2.28066         0.285074     -0.277486      1.905554
Ti       5.74144      5.74281     15.37516        -0.289150     -0.065690      2.209542
Ti       5.75938      5.80894      6.71644        -0.199423     -0.792361      0.847519
Ti       5.74396      5.71051     10.99566         1.096558      0.073721      1.056523
Ti       5.75646      9.55461      2.32126         0.785115      0.264937      2.697299
Ti       5.76961      9.68706     15.30383        -0.023514     -1.093464      1.622287
Ti       5.78871      9.60841      6.63250         0.553114     -0.057096      1.356402
Ti       5.81610      9.57722     11.02287        -0.495898      0.507730      0.442588
Ti       9.55974      1.85178      2.34510         1.163174      0.528734     -0.448323
Ti       9.58666      2.00751     15.39031         0.377246     -1.482860      1.854199
Ti       9.59398     13.46958      2.24835        -0.775531     -0.684141      1.025757
Ti       9.46874     13.45698     15.30086         1.102975      0.844906      1.759552
Ti       9.57259      1.94191      6.65554         0.744678     -0.622108      1.798267
Ti       9.64005     13.43132      6.65044         0.208859     -0.219959      1.147114
Ti       9.66997      1.98210     10.97872        -0.870747     -0.308146      1.290348
Ti       9.61476     13.46595     11.04764         0.306733      0.170336      0.371358
Ti       9.61564      5.73388      2.19245        -0.459110      0.280442      1.269977
Ti       9.58027      5.77810     15.45616         0.450669     -0.175476      1.007071
Ti       9.57335      5.77514      6.56515         0.269496     -0.062889      2.487706
Ti       9.59646      5.79616     10.90792         1.238029     -0.290008      2.389162
Ti       9.59183      9.67622      2.28881        -0.211551     -0.762247      1.975224
Ti       9.58033      9.57613     15.34002        -0.008418      0.596223      0.937329
Ti       9.73126      9.54708      6.57285        -1.572774      0.687837      0.750556
Ti       9.66152      9.55593     10.90873         0.365910      1.036359      1.758224
O       1.92562      1.97159      0.52933         0.062879     -0.122061     -1.173123
O       2.01785      1.88499     13.69073        -0.331574      0.106723     -2.975575
O       1.86960     13.48932      0.47625         0.103882     -0.303957     -1.050386
O       1.89762     13.52184     13.51815        -0.018852     -0.211879      0.926835
O      13.27853      1.97328      0.57675         0.563267      0.002098     -1.841459
O      13.32354      1.86351     13.70547         0.352608      0.142471      0.536024
O      13.49067     13.35860      0.54262         0.058929     -0.143906     -1.579740
O      13.52338     13.58318     13.52663         0.101825     -0.197383     -0.478851
O       1.79394      1.90672      4.87196         0.394756     -0.350490     -0.913733
O       1.95406     13.34516      4.96767         0.485617      0.070677     -0.790894
O      13.55110      1.92167      4.90499        -0.169062      0.054770     -0.763757
O      13.40360     13.41312      4.93168         0.047735     -0.000763     -2.244623
O       1.86559      2.00355      9.21359         0.344229     -0.088327     -0.581039
O       1.83529     13.38953      9.19834         0.321339     -0.119631     -0.676443
O      13.47094      1.94371      9.24891        -0.040156      0.344481     -0.280752
O      13.47587     13.40904      9.28925        -0.019460     -0.115292     -1.415738
O       1.97252      5.61415      0.60701        -0.119337      0.482675     -2.321745
O       1.82680      5.70372     13.60761         0.532598      0.200710     -1.294798
O      13.41028      5.81531      0.51113         0.123748     -0.135755     -0.284087
O      13.47482      5.88731     13.59571         0.046107     -0.636207     -1.511985
O       1.85165      5.79195      4.82609         0.342266      0.185493     -0.842176
O      13.44817      5.82172      4.87072        -0.099833     -0.007077     -1.244854
O       1.90740      5.62704      9.34758         0.244075      0.270175     -2.942446
O      13.51704      5.72532      9.27163        -0.407383      0.283408     -0.124484
O       2.04883      9.70918      0.46293        -0.080440     -0.330654     -0.195965
O       2.03608      9.56822     13.67825        -0.017944      0.095027     -0.994806
O      13.51604      9.57179      0.53779        -0.185294      0.032300     -1.137307
O      13.41679      9.58112     13.65703         0.155187      0.047297     -1.777499
O       1.99714      9.58008      5.07742         0.063176      0.365243     -2.046904
O      13.51044      9.63920      4.86234        -0.276673     -0.233312     -0.773751
O       1.93379      9.53675      9.27671         0.095779      0.271087     -2.759421
O      13.43098      9.50271      9.34442         0.135215     -0.045522     -1.201639
O       5.74357      1.81822      0.65327        -0.029791      0.052710     -1.446869
O       5.73908      1.92918     13.44479         0.002595      0.251822      0.792937
O       5.76436     13.41184      0.55172        -0.067140      0.240168     -0.237052
O       5.85104     13.36138     13.51388        -0.122624      0.178019     -2.003571
O       5.68646      1.98240      4.86923         0.299109     -0.470674     -0.678666
O       5.68936     13.52406      4.88496        -0.246887     -0.313037     -1.382785
O       5.64089      1.88344      9.24619         0.094223      0.450015     -0.501120
O       5.81853     13.46748      9.28223        -0.171120     -0.186702     -1.195550
O       5.71718      5.77451      0.56358         0.096067     -0.000005     -1.082313
O       5.82662      5.66596     13.69023        -0.108620     -0.072501     -2.561425
O       5.75395      5.84883      5.01239        -0.072636      0.123586     -1.399901
O       5.79215      5.67230      9.28705        -0.333989      0.298438     -1.273385
O       5.83186      9.63765      0.65040        -0.118289     -0.354673     -2.986987
O       5.77014      9.67071     13.60945         0.058406     -0.101549     -2.242041
O       5.73053      9.48580      4.92048         0.048514      0.194341     -0.987380
O       5.84830      9.66663      9.29437        -0.093894     -0.426741     -0.851440
O       9.47341      1.87219      0.60615         0.146583     -0.117748     -0.296263
O       9.63373      1.94791     13.67402         0.094813      0.319186     -1.250963
O       9.54994     13.43806      0.49393        -0.007377     -0.102661     -0.132929
O       9.48041     13.50540     13.58824        -0.063507     -0.385999     -1.182482
O       9.59915      1.82923      4.91486        -0.048041      0.341685     -1.032340
O       9.67672     13.46496      4.92711        -0.133821      0.138249     -1.016617
O       9.48564      1.98152      9.25916         0.832426      0.267651     -0.616462
O       9.65459     13.40188      9.30256        -0.068337     -0.032058     -0.582373
O       9.55380      5.82000      0.45200         0.055538     -0.098220     -0.530823
O       9.51894      5.75393     13.69840        -0.123115      0.233824     -0.181805
O       9.70235      5.72810      4.88577        -0.336992     -0.024509     -2.185840
O       9.65014      5.77765      9.19387        -0.217133     -0.060685     -1.069958
O       9.59756      9.69392      0.57586        -0.066521     -0.037339     -1.321408
O       9.62122      9.63651     13.60085        -0.219215     -0.209788     -0.216948
O       9.64062      9.58638      4.81745         0.242906      0.204620     -0.273319
O       9.75328      9.68184      9.17052        -0.206696     -0.421003     -0.256370
O       3.78813      2.06713      2.79811        -0.045786     -0.705307     -0.438916
O       3.78688      1.94818     15.75430         0.667332     -0.471996      0.171473
O       3.82952     13.35347      2.60131        -0.386500     -0.057724      0.566355
O       3.88627     13.53383     15.63126        -0.840732     -0.141529      0.306747
O      15.32384      1.83254      2.65384         0.791420     -0.134877      0.072549
O      15.30641      1.94922     15.78953         0.287392     -0.019398      0.218709
O       0.06474     13.54780      2.81403        -0.769581     -0.779654     -0.696174
O      15.33313     13.47086     15.78953         0.391376     -0.243831     -0.221862
O       3.83299      1.95686      7.01928        -0.588228     -0.245109      0.204974
O       3.83779     13.49645      7.13850         0.405932     -0.392262     -0.002098
O       0.04159      1.94468      7.12742        -0.596387     -0.008150     -0.118638
O      15.33614     13.36852      6.95635         0.470802      0.077406      0.449833
O       3.85061      1.88093     11.39355        -0.905274      0.286612     -0.053163
O       3.85539     13.59118     11.28310        -0.449021     -0.480518      0.071409
O      15.27994      1.96906     11.50695         1.458115     -0.053513     -0.124148
O       0.04342     13.31214     11.42779         0.385396      0.261281     -0.071266
O       3.82137      5.57199      2.68359         0.497191      0.737876      0.292628
O       3.76303      5.81457     15.82445         0.342844     -0.565154     -0.340407
O      15.33196      6.00569      2.63712         0.451165     -0.807041     -0.050658
O       0.01652      5.72284     15.80037        -0.060392      0.076005      0.032962
O       3.80101      5.76146      7.11131         0.279093      0.277833      0.260858
O       0.03087      5.77381      7.07724        -0.463113      0.240747     -0.112816
O       3.86444      5.77804     11.42018        -0.039081     -0.172027      0.030216
O       0.00075      5.69825     11.43339         0.870362     -0.156912      0.319809
O       3.91189      9.63647      2.74870        -1.562771     -0.025545     -0.047053
O       3.91262      9.54099     15.80699        -0.482067      0.235258      0.204126
O       0.06633      9.48239      2.65166        -0.095451      0.470909     -0.066778
O       0.01013      9.50636     15.81125         0.051194      1.030978     -0.171124
O       3.92043      9.56754      7.10640        -0.657092      0.048920      0.597837
O       0.02530      9.60154      7.11105        -0.678087      0.083994      0.211455
O       3.84900      9.54887     11.41826         0.336824     -0.329183      0.098726
O       0.09908      9.74671     11.48737        -0.435448     -0.441551     -0.178320
O       7.78014      1.76176      2.78130        -1.302177      0.060684      0.391788
O       7.65216      1.99130     15.67233        -0.704111     -0.005038      0.173443
O       7.66796     13.55464      2.72390         0.752019     -0.040678      0.018741
O       7.58355     13.36889     15.81537         0.611816      0.357250     -0.281209
O       7.66352      1.91358      7.19464        -0.513192      0.029126     -0.804412
O       7.66489     13.49214      6.98344         0.079918     -0.323263      0.204742
O       7.76017      1.94663     11.35350        -0.377740      0.038609      0.407825
O       7.62670     13.46335     11.35598         1.635098     -0.398782      0.350458
O       7.69017      5.80466      2.66222        -0.299751     -0.362904      0.070184
O       7.61232      5.61648     15.83169         0.472664      0.509969      0.078856
O       7.64355      5.90248      7.09539         0.666686     -0.631622      0.045296
O       7.79065      5.74024     11.33078        -1.818284      0.279653      0.546613
O       7.69465      9.62186      2.76663        -0.076311     -0.352920      0.105682
O       7.62494      9.69807     15.77319         0.584859     -0.640467      0.081599
O       7.76155      9.62008      7.00583        -0.151575      0.032551      0.348118
O       7.70603      9.66718     11.37116         0.174941     -0.208330      0.109571
O      11.57803      1.96554      2.70435        -0.899877      0.506302      0.479944
O      11.47258      1.74978     15.94787        -0.176959      0.906967     -0.271582
O      11.52355     13.28433      2.65923        -0.091919     -0.285409     -0.028206
O      11.49196     13.51517     15.69643        -0.118477     -0.328607     -0.023797
O      11.54815      1.88667      7.08636        -0.737718      0.638175     -0.182583
O      11.58075     13.48399      7.02675        -0.808853      0.189089      0.598842
O      11.61494      1.95707     11.64193        -1.053043     -0.135156     -1.005605
O      11.59023     13.42468     11.52905        -0.290314     -0.120723     -0.362925
O      11.49047      5.65357      2.55403         0.379466      0.359937      0.438377
O      11.54316      5.84178     15.76175        -0.907028     -0.039378      0.095719
O      11.43294      5.73573      7.08247         1.126838      0.090019      0.015842
O      11.54194      5.95112     11.34427        -0.917012     -0.184516      0.108753
O      11.54475      9.62264      2.63905        -0.234712      0.325399      0.222438
O      11.52722      9.62479     15.78120        -0.538637     -0.072907      0.240521
O      11.54864      9.65911      7.04269         0.752555     -0.571740      0.000117
O      11.58849      9.39004     11.53814        -0.481862      0.836035     -0.557310
O       1.78340      3.84895      2.63823        -0.251795     -0.274335      0.405859
O       1.87579      3.81672     15.79555         0.161137      0.529406     -0.001443
O       2.02767     15.32034      2.64286         0.028639      0.473421      0.293277
O       1.83882     15.34426     15.79224         0.295269     -0.105508      0.113334
O      13.58381      3.86399      2.72965        -0.336244     -0.113088     -0.253462
O      13.32033      3.84277     15.78989         0.120129     -0.158898     -0.020091
O      13.32014     15.28106      2.61948         0.341925      0.085576      0.162396
O      13.44654     15.35693     15.89523         0.067591     -0.558936     -0.116885
O       1.85057      3.83302      6.78024         0.637759      0.214743      0.799770
O       1.82978     15.32389      7.13097         0.703066      0.313518     -0.305618
O      13.44728      3.88645      7.05575        -0.105350      0.352507     -0.108599
O      13.42919      0.08625      7.22472         0.385837     -0.859206     -0.496840
O       1.95034      3.78868     11.33322         0.330073      0.146881      0.809431
O       1.86714      0.04015     11.30087        -0.061277     -0.829013      0.178757
O      13.38816      3.86937     11.54322         0.047214     -0.067230      0.019038
O      13.51392      0.00481     11.32084         0.032255     -0.351154      0.204313
O       1.90762      7.70862      2.71972         1.284300      0.057414     -0.336743
O       1.87010      7.71398     15.86154         0.454452     -0.967534     -0.246913
O      13.39574      7.71488      2.71682        -0.421959     -0.566275     -0.035954
O      13.45981      7.64597     15.63246         0.104081      0.608979      0.933917
O       1.86165      7.68343      7.08011         0.638864     -0.280287      0.422800
O      13.41682      7.68344      7.06669        -0.065872      0.197233      0.053709
O       1.83211      7.69095     11.39483         0.668168     -0.210920      0.150871
O      13.59999      7.61839     11.53186         0.152060      1.309725     -0.103567
O       1.76505     11.50665      2.67367         0.925819     -0.442004      0.047240
O       2.05027     11.58289     15.75019        -0.502015     -0.613445     -0.181491
O      13.54272     11.48908      2.70919         0.091486     -0.405085      0.041230
O      13.47196     11.58209     15.61320         0.002897     -0.449309      0.435767
O       1.99833     11.54873      7.25452        -0.123145     -0.848084     -0.291203
O      13.44812     11.50662      7.06245        -0.113105     -0.534170      0.276068
O       2.07385     11.48653     11.52892        -0.345235      0.981098     -0.887009
O      13.45167     11.43501     11.32862        -0.324602      0.667639      0.509452
O       5.83178      3.75862      2.76844         0.413215      0.696066     -0.065820
O       5.66020      3.76279     15.92483         0.231083      0.247126     -0.605824
O       5.76989      0.01002      2.85253        -0.785574     -0.356626     -0.223748
O       5.72482      0.02532     15.73175         0.472724      0.322001     -0.283719
O       5.73756      3.84123      6.90262         0.301314      0.257243      0.834438
O       5.69950     15.34896      7.10149         0.093433      0.294988     -0.252924
O       5.77529      3.86914     11.37392        -0.214147     -0.130887      0.280468
O       5.83677      0.06313     11.39491        -0.357365     -0.407733      0.104375
O       5.75591      7.60276      2.80759        -0.286994      0.163104     -0.485434
O       5.71824      7.60963     15.63881         0.572346      0.854967      0.657224
O       5.81396      7.72650      7.24017        -0.551140     -0.185101     -0.012800
O       5.77131      7.63246     11.42998         0.205611      0.102582      0.117983
O       5.82250     11.49670      2.63180         0.002874      0.401171      0.695746
O       5.74336     11.55573     15.76319        -0.443601     -0.139576     -0.109114
O       5.76483     11.51151      7.00136        -0.086998      0.512896      0.204788
O       5.71757     11.48811     11.30182        -0.132265      0.401010      0.635006
O       9.52632      3.83773      2.73294         0.120981     -0.561282      0.051513
O       9.62245      3.84934     15.87943         0.122416      0.350965     -0.222281
O       9.93954     15.28678      2.73544        -1.551519      0.441553     -0.577591
O       9.50059      0.01074     15.82226        -0.384548     -0.523733     -0.002335
O       9.54190      3.82461      6.99769        -0.137925      0.558738      0.256644
O       9.59173      0.05064      7.10618         0.024504     -0.698003      0.111814
O       9.60495      3.88469     11.50461         0.751205      0.176845     -0.469966
O       9.72885      0.01195     11.36258        -0.339426      0.172786      0.055257
O       9.58862      7.67908      2.65902         0.398749     -0.089649     -0.012816
O       9.57557      7.73116     15.88966        -0.454466     -0.286644     -0.304212
O       9.66348      7.67465      6.90534         0.007955      0.384198      0.524930
O       9.52068      7.76432     11.40224        -0.090547     -1.183757     -0.122149
O       9.54766     11.57158      2.76032         0.051162     -0.259187     -0.090257
O       9.60078     11.52176     15.81222        -0.149613      0.004396     -0.250797
O       9.72854     11.54773      6.97020        -0.479710     -0.089524      0.296246
O       9.72923     11.50862     11.41534        -0.399214     -0.254337      0.130049
