  # total energy = -7881.45747010 
CRSYTAL
PRIMVEC
    15.3600000000000000    0.0000000000000000    0.0000000000000000
     0.0000000000000000   15.3600000000000000    0.0000000000000000
     0.0000000000000000    0.0000000000000000    17.440000000000000
PRESSURE
2.36535 2.7092 6.41795 -0.062641 0.008116 0.042586
PRIMCOORD
320 1
Pb       3.85922      3.75811      4.27768        -0.198052     -0.000688      0.752102
Pb       3.74031      3.79201     17.42115         0.215771      0.136374     -0.284703
Pb       3.79332     15.27745      4.30794         0.238223      0.758518      0.514279
Pb       3.72433     15.25869     17.32134         0.595537      0.208802      0.636135
Pb       0.03891      3.75794      4.24878         0.046104      0.255293      0.172484
Pb      15.34111      3.82106     17.34518        -0.032208     -0.289334      0.525748
Pb       0.00604      0.00073      4.30270         0.338649     -0.043891     -0.054625
Pb       0.05287     15.32398     17.36118        -0.519744      0.344140      0.231327
Pb       3.78996      3.77478      8.73015         0.483673      0.735902     -0.078144
Pb       3.83954      0.03354      8.49929         0.110948     -0.597508      1.763490
Pb       0.07762      3.88880      8.71670        -1.071658      0.094783      0.257720
Pb      15.26588     15.31968      8.70327         0.180159      0.120428      0.016009
Pb       3.81056      3.83630     13.05439        -0.039052     -0.516924     -0.557052
Pb       3.82387      0.09614     12.98034         0.199185     -0.174011      0.183404
Pb       0.03324      3.83109     13.02672        -0.046783     -0.211796      0.057032
Pb      15.31438     15.28428     13.07627         0.198588      0.039350     -0.093633
Pb       3.80776      7.64784      4.34839        -0.160206      0.102294     -0.052547
Pb       3.86560      7.59768     17.32015        -0.502780      0.485209      0.455891
Pb      15.29880      7.76198      4.29515         0.443808     -0.572460     -0.126836
Pb      15.28906      7.54996     17.42717         0.375402      0.167845     -0.253620
Pb       3.73136      7.73659      8.61684         0.603275     -0.260674     -0.127162
Pb      15.35717      7.70597      8.63256        -0.070759     -0.356730      0.432400
Pb       3.85618      7.62417     12.94792        -0.149312      0.398946      0.409708
Pb      15.28577      7.59386     13.03355        -0.124939      0.247432      0.480919
Pb       3.92418     11.51714      4.35256        -0.940601     -0.364401     -0.117865
Pb       3.71710     11.63297     17.37280         0.558170     -0.865443      0.401611
Pb      15.23210     11.43358      4.40938         0.285698      0.701413     -0.706563
Pb      15.31987     11.54231     17.37583        -0.063997     -0.618209     -0.208580
Pb       3.90618     11.46999      8.64471        -0.576298     -0.065818      0.345735
Pb      15.29766     11.55375      8.70909         0.011975      0.212503     -0.386951
Pb       3.80174     11.45865     13.03082        -0.099793      0.437778     -0.476211
Pb       0.03400     11.51873     12.96972        -0.118272      0.229167      0.480170
Pb       7.66127      3.79639      4.26464        -0.287550     -0.320487      0.094417
Pb       7.55604      3.76190      0.04945         0.500226      0.215926     -0.212764
Pb       7.67153     15.23265      4.39499        -0.257817      0.491453     -0.381703
Pb       7.73671     15.35061     17.42123        -0.491825     -0.110663     -0.236883
Pb       7.66085      3.87635      8.60312        -0.080334     -0.099464      0.042253
Pb       7.64123      0.05881      8.70895        -0.020473     -0.031029      0.015598
Pb       7.72588      3.86839     12.93220        -0.121657     -0.899961      0.675811
Pb       7.59885      0.01779     13.00619         0.285808      0.684254     -0.197575
Pb       7.75806      7.66870      4.35887        -0.652889     -0.042553     -0.123673
Pb       7.56487      7.75444     17.36580         0.099308     -0.563654      0.100818
Pb       7.76719      7.56922      8.67583        -0.583061      0.356541      0.352177
Pb       7.72588      7.72804     13.04220        -0.310212     -0.163971      0.111734
Pb       7.65397     11.50669      4.32451         0.372156     -0.209522      0.294950
Pb       7.66208     11.43496     17.38722        -0.445702      0.240106      0.146282
Pb       7.62833     11.59418      8.62941         0.482401     -0.314868      0.764297
Pb       7.59765     11.45371     12.94908         0.263562      0.333077     -0.123591
Pb      11.43532      3.86932      4.25450         0.677055     -0.464081      0.308853
Pb      11.56558      3.82832     17.41853         0.074691     -0.098853      0.543634
Pb      11.55385     15.24708      4.41389        -0.059006      0.850411     -0.412883
Pb      11.43308     15.32602      0.09817         0.303617      0.207786     -0.731768
Pb      11.42441      3.76088      8.64687         0.728621      0.911094     -0.231562
Pb      11.50410      0.08759      8.70554         0.148699     -0.296945     -0.148641
Pb      11.56091      3.77505     13.00704        -0.086100      0.090975      0.553404
Pb      11.56047      0.00687     13.02630        -0.368675     -0.066589     -0.194718
Pb      11.47869      7.60249      4.31897         0.061565      0.472125     -0.181064
Pb      11.51911      7.72818     17.37054        -0.317374     -0.851969      0.266841
Pb      11.53248      7.71339      8.64591        -0.207212     -0.868291      0.426945
Pb      11.50293      7.58940     13.12095         0.217333     -0.050304      0.097261
Pb      11.51235     11.55469      4.20810         0.174466     -0.626169      1.150699
Pb      11.45497     11.46408     17.39610         0.139020      0.224384     -0.184550
Pb      11.57945     11.50330      8.55293        -0.438518      0.264180      0.693913
Pb      11.56538     11.51797     13.07091        -0.416854      0.228110     -0.053727
Ti       1.98479      1.87461      2.30346        -0.421385     -0.029001      2.871269
Ti       1.92237      1.89415     15.39526        -0.496932      0.257547      1.403890
Ti       1.94695     13.39414      2.34086        -0.895044      0.293614      1.993130
Ti       1.89721     13.39068     15.40872        -0.858642     -0.269070     -1.104934
Ti      13.45253      1.91150      2.38916         0.180628      0.609573      0.283259
Ti      13.45646      1.83366     15.36390         0.538430      0.867454      1.438559
Ti      13.44528     13.47611      2.30490         0.712781     -0.107889      1.229316
Ti      13.34148     13.46486     15.48330         0.647461     -0.515065      1.787868
Ti       1.89472      1.98046      6.82889        -0.244589     -0.596145     -1.208365
Ti       1.87826     13.47674      6.73702        -0.305284     -0.029833      1.072479
Ti      13.46722      1.93081      6.65934        -1.312281      0.112429      0.751173
Ti      13.36921     13.46132      6.69024         0.587371      0.168309      0.749833
Ti       1.88867      1.79843     11.00427         0.489008      1.218790      1.822675
Ti       1.93140     13.43715     10.98918        -0.351047      0.286701      0.343085
Ti      13.53829      1.89095     11.01916        -0.981553      0.373601     -0.051715
Ti      13.39539     13.40563     11.01917        -0.094806      0.487101      0.980266
Ti       1.91963      5.72855      2.35135        -0.273934      0.073456      2.640320
Ti       1.99287      5.75604     15.34225        -1.361866     -0.350022      1.355270
Ti      13.42150      5.81483      2.43972         0.536531     -1.389242      0.470690
Ti      13.39434      5.68542     15.46559         0.160292     -0.728104      0.375846
Ti       1.86831      5.80118      6.77360         1.325129     -0.018140      1.380945
Ti      13.45395      5.73926      6.61130        -1.066063     -1.084137      0.859318
Ti       1.92555      5.77928     11.07030        -0.828327     -0.998218      0.326180
Ti      13.43831      5.73611     11.09279        -0.860092     -0.376524     -1.332643
Ti       1.89262      9.57255      2.30474        -0.300803      0.176283      1.678184
Ti       1.86863      9.55409     15.31397        -0.711231     -0.390867      3.059181
Ti      13.38754      9.66478      2.28370        -0.452329     -0.797700      2.298503
Ti      13.36783      9.56531     15.45984         0.758069      0.302633      0.620242
Ti       1.82014      9.69566      6.60723         1.582822     -1.410896      1.485043
Ti      13.42601      9.53531      6.70299        -0.562485      0.554282      0.693699
Ti       1.86407      9.54877     11.01399         0.322351      0.367448      2.110902
Ti      13.42338      9.59162     11.08898        -0.764963     -0.468118      0.038583
Ti       5.76930      1.92544      2.29124        -0.074594     -1.068988      1.551344
Ti       5.76846      1.86290     15.52844         0.104233     -0.362297     -1.504271
Ti       5.71445     13.39732      2.40145         0.567326      0.596249     -0.808017
Ti       5.82121     13.39607     15.36434        -0.738515      0.639238      2.526727
Ti       5.78450      1.90304      6.67279        -0.281429      0.709219      0.030465
Ti       5.71713     13.38310      6.71417         0.219398      0.994153      2.435966
Ti       5.75534      2.00185     10.93561        -0.004034     -0.823210      2.028655
Ti       5.66800     13.47351     11.03949         0.454684     -0.388592      1.151412
Ti       5.68466      5.76499      2.34473         0.568480      0.264805      2.811463
Ti       5.73493      5.67118     15.32079         0.204856      0.521701      1.395507
Ti       5.71104      5.74170      6.64690        -0.553033      0.193660      1.603487
Ti       5.75265      5.78161     11.05384        -0.188844     -0.362728      1.515978
Ti       5.73381      9.59548      2.38979        -1.343022     -0.344302      0.177584
Ti       5.62753      9.62251     15.40181         0.124855     -0.723152      1.355125
Ti       5.77908      9.56045      6.65423        -0.767108     -0.886922      2.161365
Ti       5.71007      9.53182     11.01190        -0.104033      1.340675      1.343155
Ti       9.62563      1.78876      2.29717         0.148348      0.886977      1.644324
Ti       9.66133      1.98603     15.50507        -0.623244     -0.874164     -0.019571
Ti       9.59263     13.37946      2.37579        -0.585887     -0.016981      1.185424
Ti       9.57173     13.39250     15.35166         0.976654      0.444747     -0.334918
Ti       9.58830      1.92741      6.60277         0.270409      0.437867     -0.538324
Ti       9.56479     13.50195      6.74297         0.213719     -0.926504      0.405441
Ti       9.67300      1.87331     10.97216        -0.961676      0.003446      2.956214
Ti       9.49928     13.46026     11.04464         1.461843     -0.001526      1.409064
Ti       9.52426      5.70480      2.31955         0.729252      0.138238     -1.772290
Ti       9.48657      5.73362     15.53026         0.803085     -0.498063      1.528619
Ti       9.52726      5.78415      6.65652         1.470751     -0.270999      3.321178
Ti       9.55464      5.73078     11.13579         1.523727     -0.490093     -1.050814
Ti       9.52491      9.55885      2.27365         0.689417     -0.400424      1.496785
Ti       9.53683      9.55214     15.39297         0.103208     -0.047063      0.993372
Ti       9.51994      9.60605      6.79288         0.713080      0.226835      0.659593
Ti       9.60565      9.57909     11.09844         0.020450      0.436386      0.681467
O       1.99701      1.71102      0.65099         0.003176      0.356696     -3.638812
O       1.89996      1.90851     13.71112         0.087105     -0.054688     -1.947454
O       1.96461     13.42461      0.63490        -0.054549     -0.239787     -2.114494
O       1.94831     13.38757     13.66443        -0.235991     -0.161929     -0.340749
O      13.64680      1.91650      0.69119        -0.521617     -0.359348     -0.918151
O      13.45740      1.90907     13.64462         0.124203     -0.124166     -1.450927
O      13.42229     13.41679      0.60038        -0.109800      0.169588     -1.228453
O      13.26141     13.43073     13.80664         0.080603      0.146788     -2.960627
O       1.93021      2.00802      5.07514        -0.016382     -0.216896      0.059871
O       1.84858     13.47504      5.03017         0.127136      0.072185     -0.935675
O      13.33785      1.85164      4.91546         0.309229      0.004819     -0.417566
O      13.50795     13.35832      4.97848        -0.160874      0.410974     -1.583928
O       1.94558      1.85120      9.31614        -0.345867      0.165391     -2.158253
O       1.95119     13.58168      9.25260        -0.332311     -0.584153     -0.343258
O      13.44172      1.81418      9.24348        -0.053059      0.247033      0.737708
O      13.41219     13.44701      9.30890         0.238782     -0.013998     -1.368717
O       1.86320      5.67297      0.69216         0.381428      0.229427     -2.937524
O       2.00630      5.65825     13.62907        -0.075113      0.337736     -1.644917
O      13.43315      5.75809      0.72427         0.098111     -0.045035     -2.110702
O      13.41148      5.62442     13.74049         0.086741      0.006058     -0.621964
O       1.87833      5.74659      5.11229         0.125657     -0.141691     -2.869078
O      13.45090      5.73886      4.86493         0.052148      0.129191     -0.135530
O       1.82026      5.86157      9.34765        -0.061261     -0.075088     -0.984210
O      13.47020      5.69648      9.31248        -0.050109      0.402503      0.504905
O       1.75034      9.53323      0.62285         0.433955      0.104576     -1.327106
O       1.81472      9.56004     13.64067         0.175663      0.175048     -2.553801
O      13.25046      9.58906      0.61571         0.176106     -0.096227     -3.077214
O      13.37717      9.52820     13.76808         0.069783      0.259880     -1.810785
O       1.87106      9.42760      4.92522        -0.368702      0.742271     -1.591691
O      13.49312      9.69315      4.99821        -0.191289     -0.288940     -0.939389
O       1.94042      9.46327      9.32842        -0.545231      0.398320     -1.663880
O      13.39741      9.63625      9.33011         0.250185     -0.205032     -0.472611
O       5.82405      1.81748      0.56515        -0.507467      0.376856     -0.906668
O       5.71874      1.85656     13.72627         0.226190     -0.169678      0.586468
O       5.70248     13.23579      0.67277         0.020185      0.547704     -0.763047
O       5.63762     13.49511     13.69524         0.206045     -0.038207     -1.858528
O       5.75286      1.89944      4.92768         0.245766     -0.001017      0.143485
O       5.74267     13.37756      5.03934         0.122968     -0.188758     -2.467534
O       5.87208      1.95742      9.23347        -0.222612      0.229283     -1.365861
O       5.74627     13.42577      9.35271         0.237146     -0.022651     -2.213262
O       5.59016      5.67024      0.67850         0.150497      0.114071     -2.646461
O       5.81238      5.75462     13.60271        -0.332641     -0.073354     -0.895832
O       5.75356      5.70550      4.95828        -0.103738      0.169112     -1.909409
O       5.82380      5.76633      9.39074        -0.069843     -0.110383     -2.262258
O       5.68354      9.68434      0.66853         0.161082     -0.437116     -1.210291
O       5.69333      9.46857     13.72179         0.039741      0.440446     -2.172250
O       5.77382      9.58396      4.95998         0.139882      0.316639     -1.640368
O       5.63066      9.59823      9.33452         0.270331     -0.109302     -2.071307
O       9.63867      1.81479      0.56121        -0.237544     -0.331937     -0.746853
O       9.48849      1.98627     13.78786         0.259198     -0.036428     -0.577072
O       9.56665     13.29616      0.67644        -0.056213      0.382150     -1.166928
O       9.74362     13.32769     13.58957        -0.315510      0.253615      0.739654
O       9.65989      1.89064      4.82446        -0.266565     -0.033623      0.515786
O       9.60556     13.22433      5.03577        -0.225320      0.627722     -1.256955
O       9.56477      1.87912      9.29086         0.127118      0.085405     -2.257963
O       9.56297     13.57830      9.34575        -0.196422     -0.193329     -2.227937
O       9.52334      5.72973      0.52756        -0.119210      0.114189      1.455450
O       9.62103      5.67291     13.82743        -0.425687      0.085061     -1.768679
O       9.65673      5.79463      5.01575        -0.187516      0.223507     -4.005447
O       9.73115      5.74041      9.38531        -0.551833      0.043255     -0.270165
O       9.42867      9.53153      0.55250         0.261229      0.104948     -0.426923
O       9.50792      9.61475     13.67853        -0.126893     -0.213024     -1.503375
O       9.42319      9.50172      5.09855         0.243894      0.161796     -1.971908
O       9.54942      9.52361      9.38008         0.287636      0.032554     -0.330515
O       3.92623      1.76159      2.84139        -0.348479      0.699993     -0.477630
O       3.85030      1.82090     15.80890        -0.974209      0.530078      0.408193
O       3.85923     13.44724      2.86399        -0.351594      0.064892     -0.103201
O       3.72082     13.35939     15.79258         1.551925     -0.044410      0.283021
O       0.08727      1.91542      2.74474        -0.534181     -0.156768      0.482723
O      15.34050      1.85922     15.89294         1.437568     -0.188998     -0.230866
O       0.02249     13.41449      2.72832        -0.406462      0.306934      0.065724
O      15.31142     13.28975     15.82794         0.153810      0.561730      0.051235
O       3.84607      1.93285      7.25981         0.369739      0.517094     -0.848033
O       3.83815     13.40207      7.11864        -0.221096      0.132259     -0.173367
O      15.24693      2.00399      7.12731         1.917054     -0.577715      0.049544
O      15.34705     13.51901      7.16202         0.119648     -0.255322      0.121631
O       3.79618      2.03814     11.40845         0.699632     -0.872403      0.171410
O       3.78402     13.43366     11.43665         0.094458     -0.200249      0.293275
O       0.02046      1.86394     11.48840        -0.152286      0.346099     -0.049540
O      15.33747     13.51947     11.46855         0.130913     -0.626025      0.043408
O       3.85895      5.72793      2.78921        -1.077789      0.358676      0.254413
O       3.83560      5.69349     15.91601         0.057606     -0.459775     -0.426514
O       0.07694      5.76182      2.80465        -0.706916     -0.624806      0.247941
O       0.01577      5.66995     15.87075        -0.648962      0.706184     -0.194027
O       3.84992      5.77679      7.25219        -0.429272     -0.253832     -0.206678
O       0.00875      5.79658      7.19509        -0.991608     -0.141780     -0.202638
O       3.77198      5.70208     11.35637         1.103549      0.549624      0.550990
O      15.31224      5.68292     11.51317         0.575608      0.505409      0.174021
O       3.78144      9.56852      2.82066         0.041424      0.094343     -0.064059
O       3.73379      9.56570     15.78533         0.479080      0.216319      0.050590
O      15.20111      9.68068      2.65864         2.084026     -0.107231      0.731249
O      15.25834      9.50823     15.86396         0.298601      0.146062      0.060867
O       3.78004      9.71416      6.99923         0.719159     -0.345887      0.270063
O      15.33342      9.64915      7.10794        -0.708817     -0.547059      0.203788
O       3.76002      9.52947     11.42570         0.188757      0.111650      0.439482
O      15.23938      9.47346     11.61272         1.087803      0.421762     -0.692787
O       7.60662      1.96139      2.67327         1.712007      0.036884      0.292990
O       7.67148      1.85655     15.92434         0.031789     -0.234179      0.197811
O       7.64642     13.31167      2.86221         0.993329      0.009398     -0.076291
O       7.74897     13.44316     15.77945        -1.487591     -0.173797     -0.107223
O       7.67144      2.00816      7.14260         0.324726     -0.627978     -0.369120
O       7.66361     13.42442      7.05366        -0.122553      0.243071      0.465240
O       7.62619      1.87474     11.36837         0.296003     -0.011234      0.360638
O       7.70065     13.51539     11.47559        -1.990635     -0.286375      0.258432
O       7.66989      5.70250      2.80517         0.287735     -0.013253     -0.227066
O       7.56686      5.71110     15.87932        -0.360577      0.406782     -0.123003
O       7.63210      5.82493      7.06147         0.472149     -0.181548      0.252851
O       7.67150      5.83265     11.35494         0.357116     -0.302780      0.708587
O       7.57963      9.54037      2.74322         1.894657      0.516305      0.161534
O       7.60236      9.49298     15.86252        -0.422494      0.117482     -0.257662
O       7.67519      9.51522      7.18954        -1.169424      0.549010      0.145024
O       7.62872      9.56407     11.47870         0.555143     -0.190336      0.154535
O      11.50694      1.73038      2.63119        -0.030517      0.314298      0.247197
O      11.63807      1.94747     15.85064        -2.011241     -0.391594      0.197344
O      11.49727     13.40192      2.75312         0.421106      0.608497      0.009203
O      11.47789     13.42706     16.01128        -0.805905     -0.040400     -0.238202
O      11.46750      1.91233      7.15004         0.180622      0.242842     -0.206404
O      11.46443     13.45832      7.02340         0.574974     -0.194193      0.492936
O      11.52350      1.93999     11.50284         0.274073     -0.670847     -0.625958
O      11.51632     13.47046     11.38034         0.341050     -0.257117      0.507235
O      11.50730      5.83070      2.75981        -0.689759     -0.119495      0.283868
O      11.44519      5.55768     15.92574         0.811273      0.658695     -0.260698
O      11.51676      5.77556      7.04016        -0.058592     -0.298114      0.172049
O      11.56046      5.63750     11.60703        -0.791530      0.402814     -0.119824
O      11.51333      9.54940      2.76044        -0.838001     -0.385323      0.045033
O      11.43744      9.55647     15.78134        -0.236802     -0.033846      0.490621
O      11.49921      9.61299      7.17477         0.575562      0.126520     -0.330299
O      11.50191      9.60377     11.59015        -0.254638      0.400912     -0.398846
O       1.98114      3.75780      2.71820         0.324130      0.662057      0.153803
O       1.84229      3.87474     15.70677         0.801549     -1.466693      0.674029
O       2.01890      0.02941      2.77544        -0.636042     -1.352856      0.413737
O       1.88065     15.29679     15.74765        -0.074064      0.215655      0.301559
O      13.36821      3.83404      2.77352         0.202415     -0.334361      0.304177
O      13.53789      3.67356     15.93255        -0.547144      1.852870     -0.182316
O      13.49975      0.02972      2.77338        -0.248052     -1.471806      0.235675
O      13.48575      0.00290     15.80328        -0.272142     -0.924267      0.495412
O       1.97099      3.84801      7.19381        -0.403798      0.292639      0.521005
O       1.97641      0.08553      7.15961        -0.657573     -0.934172     -0.385041
O      13.41929      3.80290      7.11574        -0.079548      0.898801     -0.204865
O      13.39593     15.32971      7.13045        -0.024414      0.620972     -0.115138
O       1.95632      3.77359     11.41852        -0.775802      0.759543      0.228096
O       1.87970     15.31738     11.48427         0.289487      0.242273      0.209154
O      13.39858      3.81268     11.41242         0.646576     -0.704999      0.231626
O      13.53131      0.01843     11.47656        -0.823602     -0.484300      0.133739
O       1.81265      7.68179      2.74862         0.448334      0.125012      0.024492
O       1.86322      7.59240     15.75269         0.269307      0.673841      0.253629
O      13.54378      7.62377      2.73099        -0.566176      1.816418      0.368415
O      13.29087      7.56347     15.71075         0.212226      0.367434      0.882989
O       1.97319      7.69832      7.07354        -0.680244      0.680871      0.446507
O      13.29121      7.62829      7.03026         1.176425      0.896129     -0.044501
O       1.85296      7.70371     11.47185        -0.062695     -0.953123      0.266097
O      13.28153      7.65649     11.55349         0.721353     -0.079727     -0.209590
O       1.93443     11.58464      2.79266         0.143657     -1.265582     -0.023072
O       1.88470     11.40510     15.83049        -0.439284      0.765228     -0.011511
O      13.37516     11.54288      2.71546         0.106821      0.431069      0.102987
O      13.27408     11.52134     15.78070         0.310381     -0.672147      0.627932
O       1.87066     11.49227      7.08150        -0.315423      1.374309      0.177481
O      13.52018     11.60069      7.07048        -0.389932     -1.268498      0.665931
O       1.87615     11.53459     11.45260        -0.268721     -0.860602     -0.190711
O      13.56450     11.50988     11.39757        -0.633255     -0.014762      0.358415
O       5.69821      3.84608      2.79253         0.305249     -0.618511     -0.384769
O       5.77092      3.76163     15.85953        -0.525909      0.681743      0.033000
O       5.96061     15.29696      2.82261        -0.834373      0.191327     -0.194999
O       5.64516     15.28156     16.00838         1.019647     -0.592567     -0.795467
O       5.72997      3.87428      6.98501         0.238035     -0.880083      0.814496
O       5.81652      0.02871      7.10072        -0.134233     -0.643455     -0.173533
O       5.79295      3.84058     11.50414        -0.223397      0.372844     -0.357946
O       5.66113     15.33084     11.37961         0.187335      1.132859      0.365923
O       5.72201      7.67516      2.82326         0.138834     -0.194142     -0.240617
O       5.52867      7.65882     15.73026         1.000334     -0.593105      0.381468
O       5.68624      7.66802      7.02713         0.156045      0.899433      0.210351
O       5.79081      7.70203     11.48194        -0.522878     -0.869253      0.207282
O       5.65758     11.52895      2.72018         0.359403     -1.024634      1.150446
O       5.75881     11.51889     15.78553        -0.096181      0.075261     -0.110183
O       5.74708     11.52877      7.21789         0.367018     -0.573218     -0.605280
O       5.64849     11.49810     11.37534         0.427507     -0.068290      0.785765
O       9.74544      3.78311      2.67806        -0.867960      0.212333     -0.064891
O       9.48708      3.81388     16.00646         0.083037     -0.350884     -0.168755
O       9.62634     15.29532      2.81950        -0.786860     -0.522440     -0.226774
O       9.58470     15.30139     15.77484         0.434436      0.213404      0.463879
O       9.54175      3.84688      6.95743         0.116230      0.179645      0.607794
O       9.69289      0.07430      7.02737        -0.981196     -0.914525      0.118050
O       9.58921      3.76350     11.47562        -0.269897      0.568885     -0.064880
O       9.55746      0.01087     11.48483         0.352675      0.449977      0.255399
O       9.58520      7.64188      2.73624        -0.298156      0.497223      0.207942
O       9.57634      7.62725     15.92523        -0.304240      0.259116     -0.331077
O       9.58425      7.69776      7.17751         0.180913     -0.596186      0.094630
O       9.70941      7.58030     11.56450        -0.645541      1.203007     -0.015596
O       9.73965     11.43711      2.77403        -1.436102     -0.100832     -0.383323
O       9.46041     11.39798     15.80912         0.603411      1.235786      0.137701
O       9.57791     11.50551      7.19211        -0.177326      0.395805      0.195471
O       9.43220     11.56421     11.49956         0.818602     -1.295775     -0.345019
