  # total energy = -7867.21164456 
CRSYTAL
PRIMVEC
    15.010000000000000    0.0000000000000000    0.0000000000000000
     0.0000000000000000   15.010000000000000    0.0000000000000000
     0.0000000000000000    0.0000000000000000    16.400000000000000
PRESSURE
15.6263 15.8916 4.87609 -0.169173 -0.03059 -0.030424
PRIMCOORD
320 1
Pb       3.88526      3.76382      4.35532        -0.191677     -0.865255     -0.776229
Pb       3.79928      3.77677      0.17015         0.092380      0.200288     -0.305981
Pb       3.66158      0.10574      4.12779         0.444591     -0.290449     -0.132823
Pb       3.66356      0.01957     16.39405         0.307302     -0.662831      0.030312
Pb       0.01264      3.68435      4.04186        -0.473692     -0.321960      0.267529
Pb       0.06538      3.78992     16.38435        -0.365415      0.077735     -0.197040
Pb       0.08497     14.99440      4.08472        -0.192559      0.115063      0.124833
Pb      14.92214      0.02123      0.00977         0.099590     -0.170916      0.316576
Pb       3.84187      3.72331      8.30488        -0.070620     -0.317642     -0.440330
Pb       3.76811     14.80383      8.32148         0.073581      0.260610     -0.175584
Pb       0.17649      3.79260      8.30301        -0.765302     -0.249682     -0.607236
Pb       0.08530     14.92651      8.28301        -0.335960      0.133897     -0.824411
Pb       3.71047      3.79046     12.25150         0.240005     -0.742218      0.138282
Pb       3.75462     14.97073     12.48020         0.074416      0.341142     -0.607665
Pb       0.08380      3.73090     12.29529        -0.577428      0.288024     -0.114286
Pb       0.02607      0.01097     12.33137        -0.324639      0.073235     -0.195513
Pb       3.55283      7.46973      4.13058         0.587957      0.275474     -0.170212
Pb       3.70149      7.36926      0.21540         0.228745      0.369553     -0.728367
Pb      14.83680      7.46288      4.09911         0.116836      0.569822      0.058091
Pb      14.90464      7.54749      0.01325         0.526100      0.425025      0.130247
Pb       3.71448      7.47576      8.14730         0.390389      0.310998     -0.037496
Pb      14.95830      7.46609      8.25983         0.017657     -0.110422     -0.625356
Pb       3.74447      7.56982     12.31799         0.458494     -0.112806     -0.414989
Pb       0.06822      7.39401     12.36039        -0.191547      0.045416     -0.432002
Pb       3.53891     11.37501      4.13409         0.867138     -0.098152     -0.006178
Pb       3.67659     11.18316     16.32514        -0.103221      0.284034      0.195664
Pb      14.91149     11.31743      4.08066         0.118084     -0.147631      0.255492
Pb      14.86740     11.30370      0.00332         0.352102     -0.606642     -0.133855
Pb       3.66661     11.15877      8.33038         0.524142      0.190850     -0.154190
Pb      14.94004     11.15621      8.30038         0.062348      0.514009     -0.474699
Pb       3.68742     11.32561     12.37845         0.167396     -0.504867     -0.236267
Pb      14.98041     11.29089     12.35639         0.039667     -0.491066     -0.294316
Pb       7.58233      3.62378      4.21839        -0.801474      0.309281      0.202511
Pb       7.56168      3.79363      0.00431        -0.230978      0.156126      0.210670
Pb       7.48858      0.00615      4.22212        -0.023207     -0.387951     -0.192154
Pb       7.44259      0.09007      0.05496        -0.079034     -0.538264     -0.111129
Pb       7.57353      3.68858      8.24567        -0.125609      0.446790     -0.387715
Pb       7.57073     14.90261      8.32085        -0.197114     -0.358848     -0.254064
Pb       7.58045      3.70574     12.26526        -0.306870      0.122826      0.112090
Pb       7.58473     14.91070     12.47357        -0.174249      0.032206     -0.390912
Pb       7.33053      7.56926      4.11573         0.161493     -0.503070      0.035269
Pb       7.49390      7.53157      0.10363         0.032799     -0.435503     -0.334585
Pb       7.44875      7.53865      8.34810        -0.254297     -0.244058     -0.747013
Pb       7.53088      7.39487     12.49894         0.012589      0.046834     -0.478223
Pb       7.38136     11.35117      4.07835        -0.025160     -0.132823      0.541190
Pb       7.52499     11.26058      0.07754        -0.230351     -0.258229      0.072020
Pb       7.35148     11.15903      8.35320         0.103261      0.405275     -0.653364
Pb       7.50028     11.12901     12.44513        -0.016450      0.495319     -0.201499
Pb      11.18851      3.71850      4.13117         0.322819     -0.129198     -0.356364
Pb      11.24756      3.75408     16.39747         0.154407      0.163279     -0.096656
Pb      11.26115      0.06748      4.20642         0.133337     -0.097850     -0.420438
Pb      11.10821      0.01522      0.12062         0.462840     -0.104138     -0.110495
Pb      11.33359      3.79670      8.17185         0.269498     -0.331127     -0.465537
Pb      11.24684     14.89268      8.30177         0.460262      0.068088     -0.381436
Pb      11.34445      3.74409     12.27396         0.357048     -0.086604      0.265247
Pb      11.30311      0.11595     12.29654         0.051570     -0.324997     -0.313157
Pb      11.15267      7.45237      4.16813         0.589037      0.213221     -0.420587
Pb      11.16409      7.52687      0.12064         0.089906     -0.209225     -0.177078
Pb      11.14564      7.49609      8.20531         0.316616      0.163294     -0.309789
Pb      11.38170      7.42684     12.31226        -0.634031      0.251315      0.110066
Pb      11.21199     11.27578      4.17053         0.210958     -0.043052     -0.352186
Pb      11.23635     11.16623      0.05582         0.295162      0.314673      0.046508
Pb      11.06167     11.08605      8.30189         0.553850      0.698404     -0.889989
Pb      11.26759     11.25843     12.28064        -0.136065     -0.176194      0.107894
Ti       1.86182      1.93067      2.08949         0.613954     -1.455931      0.143702
Ti       1.93313      1.91424     14.45674        -0.391351      0.142981     -0.658998
Ti       1.88191     13.09963      2.01158        -0.013360      0.834507     -0.635545
Ti       1.78640     13.15284     14.34688         0.820640     -1.003063     -0.340170
Ti      13.16271      1.87793      1.95799        -1.407322      0.163715      0.672281
Ti      13.15569      1.87334     14.31692        -0.430029      0.616291     -0.326136
Ti      13.11309     13.14457      2.03782        -0.492719      0.631164     -0.658370
Ti      13.10048     13.16482     14.31642        -0.427775     -0.440506      0.319294
Ti       1.91223      1.85648      6.28248        -0.630764     -0.309698     -0.599041
Ti       1.88521     13.07564      6.23110        -0.055126      0.328588     -0.758182
Ti      13.16824      1.85077      6.16333         0.332268      0.164301     -0.551540
Ti      13.15040     13.11275      6.16199        -0.648615      0.697101     -0.024457
Ti       1.92091      1.81258     10.25899        -0.018629      0.322452     -0.511806
Ti       1.87610     13.09273     10.31541         0.223360     -0.037533     -0.100042
Ti      13.22111      1.85949     10.20069        -1.454570      0.241405      0.270431
Ti      13.15542     13.07391     10.21098        -0.468059      0.624670     -0.307785
Ti       1.79449      5.61666      2.10930         0.637327      0.266705     -1.018042
Ti       1.92754      5.65456     14.34960        -0.383438     -0.182075      0.245942
Ti      13.13265      5.61062      2.03852        -1.227401      0.225327     -0.394686
Ti      13.15407      5.64606     14.42279        -0.538620     -1.094610     -0.737833
Ti       1.82477      5.63144      6.10070        -0.467639      0.178730      0.433724
Ti      13.10050      5.60579      6.10242         0.405054      0.203417      0.256688
Ti       2.00950      5.61520     10.21819        -1.951393      0.214505      0.681250
Ti      13.13394      5.61268     10.19637         0.878289     -0.761001      0.483260
Ti       1.79552      9.40500      2.09017        -0.803854     -0.018293     -0.822868
Ti       1.93167      9.35658     14.31140        -0.880109      0.602393     -0.059190
Ti      13.08929      9.41878      2.12901        -0.657734     -1.053324     -0.433576
Ti      13.11428      9.34148     14.29826         0.178646      1.165320      0.606180
Ti       1.78460      9.40665      6.09746         0.001616     -0.751644     -0.143460
Ti      13.08384      9.39533      6.23893        -0.641558     -0.671561     -1.323903
Ti       1.82259      9.32279     10.21170         1.092025      0.439441      0.753380
Ti      13.09026      9.31422     10.20774         0.065322      0.703313     -0.082341
Ti       5.55549      1.81024      2.04261         0.473641      0.286633      0.591395
Ti       5.64560      1.96209     14.28845        -0.024211     -1.669585     -0.178647
Ti       5.60433     13.11239      2.05286        -0.094785      0.156626      0.021492
Ti       5.63497     13.07166     14.40748         0.020865      0.864280      0.141035
Ti       5.69828      1.74071      6.34869        -0.967538      1.153356     -1.399561
Ti       5.67433     13.08433      6.21167        -0.572469     -0.189998     -0.692244
Ti       5.69159      1.80414     10.28098        -0.644188     -0.117780      0.539966
Ti       5.67326     13.12531     10.46829         0.092610     -0.439018     -1.138678
Ti       5.58354      5.56857      2.20421         0.389853     -0.244880     -0.608001
Ti       5.59392      5.59626     14.39186         1.101806      1.123157      0.284771
Ti       5.60899      5.56283      6.23509         1.186284      0.625131     -0.300161
Ti       5.67979      5.57958     10.25477         0.498834      1.539167      0.067670
Ti       5.50161      9.38009      2.07496         0.639493      0.247992     -0.196573
Ti       5.62365      9.36526     14.40579        -0.003930     -0.884285     -0.021014
Ti       5.57330      9.38910      6.12679         0.616263     -0.503525     -0.376376
Ti       5.61854      9.37106     10.35915        -0.784030     -1.187864     -0.265546
Ti       9.29940      1.88069      2.15258         1.086390     -0.369950     -0.319942
Ti       9.38944      1.84774     14.36686         0.454493      0.205210      0.643304
Ti       9.33058     13.11772      2.06685        -0.095140      0.352497     -0.145313
Ti       9.39965     13.11083     14.43330        -0.104934      0.169582     -0.558604
Ti       9.44850      1.85122      6.25352         0.250675      0.100284     -0.604384
Ti       9.42089     13.06233      6.13439        -0.226745     -0.032180     -0.368992
Ti       9.41017      1.82387     10.26268         0.427334     -0.273804     -0.272889
Ti       9.41288     13.05871     10.24906        -0.487862      0.324411      0.507311
Ti       9.32290      5.63775      2.11502         0.203267     -0.205804     -0.159615
Ti       9.38215      5.59490     14.29070         0.094118     -0.057944      0.324963
Ti       9.35088      5.67647      6.12323        -0.357622     -0.647720     -0.558066
Ti       9.44066      5.56009     10.16857        -1.060645      1.340218      0.844130
Ti       9.31336      9.39470      2.16622         0.014996     -0.497088     -0.684773
Ti       9.43246      9.39707     14.40700         0.023620     -0.849978     -0.598178
Ti       9.31394      9.34036      6.08693        -0.309180      0.463458     -0.223300
Ti       9.31292      9.36675     10.35126         0.288834     -1.362089      1.147144
O       1.88371      1.88960      0.22342         0.166434      0.063223     -0.526474
O       2.03099      1.79926     12.56395        -0.516047      0.122977      0.082620
O       1.86740     12.99677      0.15773        -0.023290      0.251338      0.016261
O       1.82854     13.17220     12.37596        -0.233581     -0.163474      1.102132
O      13.15403      1.91635      0.11060         0.104725     -0.375935      0.064584
O      13.16013      1.82696     12.41266        -0.172636     -0.035053      1.184743
O      13.08304     13.22765      0.13200         0.376364     -0.436043      0.604368
O      13.23199     13.13238     12.43368        -0.498059     -0.080371      0.569693
O       1.83740      1.81518      4.32444        -0.016414      0.047549      0.576252
O       1.81494     13.07573      4.25128        -0.229279      0.308309      0.487452
O      13.10599      1.89098      4.21797         0.083547      0.049901      1.192932
O      13.06812     13.09846      4.23453         0.055487      0.264958      0.331590
O       1.87567      1.86068      8.33957        -0.677477      0.098927      1.142863
O       1.94876     13.07619      8.37584        -0.155444      0.028727      0.223006
O      13.13385      1.88850      8.39424         0.076460      0.007737     -0.409532
O      12.99098     13.09092      8.38058         0.985164      0.065284     -0.016957
O       1.79383      5.63207      0.13774         0.228087     -0.026219      0.837602
O       1.86748      5.55060     12.44966         0.352677      0.515074      0.831752
O      13.22124      5.54667      0.12295        -0.061978      0.383593      0.421133
O      13.10115      5.68918     12.48291         0.033006     -0.085284      0.416026
O       1.77226      5.58756      4.26077         0.382513      0.274647      0.241270
O      13.12322      5.60644      4.24791         0.184324     -0.164481      0.181806
O       1.94275      5.58170      8.40251        -0.297203      0.098124     -0.473937
O      13.11484      5.60125      8.37108        -0.167967     -0.065507     -0.047241
O       1.67401      9.40705      0.20514         0.673436      0.046798      0.415505
O       1.89781      9.34138     12.41355         0.057218      0.044595      1.043219
O      13.07539      9.41981      0.22494         0.119915     -0.279773      0.045469
O      13.09872      9.45894     12.47722        -0.245867     -0.576205     -0.871097
O       1.67145      9.37338      4.24337         0.633142     -0.065155      0.568008
O      12.97601      9.32600      4.26372         0.444188      0.359607      0.939449
O       1.86252      9.39052      8.37712         0.026788     -0.109666     -0.215079
O      13.08383      9.41572      8.30770         0.225638     -0.111163      1.063518
O       5.62693      1.82446      0.16960        -0.243832      0.302785      0.403065
O       5.52759      1.82855     12.42940         0.115444      0.016014      0.611495
O       5.61587     13.08877      0.19859        -0.083890     -0.252128     -0.380398
O       5.74041     13.08624     12.44638        -0.510182      0.119306      1.009124
O       5.55815      1.92911      4.37883         0.122597     -0.625357      0.988044
O       5.60919     13.07824      4.30618         0.056425      0.130745      0.720431
O       5.80249      1.84379      8.43038        -0.337552     -0.165004      0.034004
O       5.65302     13.08066      8.43913         0.051676     -0.194823      0.099124
O       5.51395      5.56251      0.20499         0.304164     -0.028922      0.802553
O       5.69389      5.65883     12.54057        -0.252087     -0.080082     -0.154004
O       5.52286      5.57760      4.22278         0.080138      0.003101      1.605827
O       5.69409      5.59708      8.40405        -0.547330     -0.135965     -0.331177
O       5.50304      9.46575      0.16249         0.586695     -0.384006      1.111803
O       5.51224      9.32473     12.52534         0.196962     -0.111834      0.198577
O       5.66475      9.46877      4.25257        -0.341316     -0.646964      0.878516
O       5.66723      9.37251      8.45075        -0.030897      0.120930      0.185131
O       9.27916      1.81859      0.21786        -0.058064      0.462424      0.687479
O       9.40902      1.83095     12.56024        -0.003353     -0.192928     -1.359760
O       9.21773     13.07282      0.11519         0.148088      0.014406      1.131254
O       9.35984     13.22000     12.51044         0.299948     -0.510932      0.676648
O       9.41947      1.84692      4.26031        -0.161126     -0.169065      0.764920
O       9.39917     13.13467      4.22784         0.088747     -0.261436      0.939375
O       9.35896      1.76612      8.36892         0.140432      0.506981      0.393945
O       9.36532     13.08335      8.39861        -0.192828      0.116489     -0.105268
O       9.33671      5.51760      0.23838        -0.175129     -0.046107      0.228482
O       9.22033      5.50193     12.40214         0.727498      0.062083      1.211836
O       9.24133      5.66811      4.23853         0.463642      0.003720      0.745248
O       9.45274      5.61053      8.31356        -0.098500     -0.099458      0.538545
O       9.35752      9.40475      0.16490        -0.097247     -0.258754      0.456892
O       9.51266      9.43148     12.50169        -0.267081     -0.108009      0.527717
O       9.42201      9.28333      4.22638        -0.556295      0.106946      0.313467
O       9.39413      9.30660      8.53233        -0.731271     -0.108587     -0.360143
O       3.73274      2.09441      2.47863        -0.267792      0.083413     -0.800662
O       3.76690      1.53958     14.57829        -0.015958     -0.062236      0.104406
O       3.74681     12.87658      2.28058        -0.724970     -0.466630      0.003851
O       3.65026     13.31317     14.50350         1.578980      0.424593     -0.004679
O      14.98905      1.65108      2.33242         0.271948     -0.042265     -0.203770
O       0.02254      2.13349     14.50597         0.735656     -0.124030      0.112740
O      15.00321     13.39697      2.08237        -0.939922     -0.129629      0.690526
O      14.99743     12.75984     14.52778        -1.075521      0.215791     -0.055851
O       3.72585      1.98094      6.54998         0.713444      0.209466     -0.424401
O       3.74431     12.91236      6.27797         0.003080     -0.461213      0.500689
O      14.99975      1.62297      6.36161         0.118678      0.154258      0.169633
O      14.97786     13.27462      6.42476        -0.185458      0.226841      0.072857
O       3.73322      2.05561     10.34290         1.220090      0.392477      0.128270
O       3.73396     12.92575     10.54853         0.490125     -0.545675     -0.358630
O      14.99108      1.62694     10.51243         1.776795     -0.003593     -0.115674
O       0.01955     13.36076     10.39894        -0.338720      0.305445     -0.104064
O       3.63835      5.35124      2.25935         0.664169      0.164967      0.112106
O       3.81729      6.00009     14.68213        -1.367876     -0.374513     -0.768247
O      14.99199      5.76973      2.29146        -0.882651      0.409787      0.133139
O       0.01687      5.25350     14.41679         0.505766      0.639056      0.276060
O       3.71993      5.37192      6.39185         0.327047      0.491324     -0.080134
O      14.98070      5.98583      6.40959         0.103725     -0.931125     -0.215753
O       3.77538      5.33862     10.47360         0.559648     -0.008152     -0.065433
O      15.00434      5.85127     10.47703         0.455914     -0.109328     -0.326197
O       3.63940      9.67773      2.37723         0.361657     -0.546026     -0.462927
O       3.75673      9.04106     14.67695        -0.851315      0.168755     -0.335412
O      14.90948      9.09705      2.30707         0.481098      0.391704     -0.082033
O      14.95548      9.55293     14.47547         0.840918      0.487983      0.244748
O       3.73353      9.52566      6.34742        -0.571432      0.242921      0.053180
O      14.95856      9.10175      6.38831        -0.432944      0.223350      0.077091
O       3.74435      9.67164     10.48136        -0.574891     -0.212338     -0.263348
O       0.00296      9.08723     10.39456        -0.835540     -0.200659      0.200563
O       7.44117      1.49355      2.41491         0.046952      0.641781     -0.743566
O       7.50631      2.20892     14.43993        -0.561525     -0.247869      0.474722
O       7.43291     13.39375      2.33086         0.263102      0.048174     -0.039855
O       7.46498     12.68514     14.57572         0.164012      0.337833     -0.517369
O       7.52880      1.60883      6.35425         0.592753     -0.145745      0.077581
O       7.53829     13.37901      6.29229        -0.233328      0.048338      0.490189
O       7.51824      1.53480     10.56026         0.408748      0.083295     -0.064974
O       7.55752     13.33801     10.53148        -0.627116      0.358223     -0.414239
O       7.42607      5.86946      2.30341        -0.160296      0.054013     -0.387687
O       7.52221      5.36022     14.62956        -0.347207     -0.620345     -0.162491
O       7.52352      5.77684      6.37753        -1.227450      0.075727      0.061296
O       7.50527      5.92742     10.36192         0.331125     -0.294482      0.287627
O       7.43350      8.96712      2.24290        -0.170300      0.646999     -0.242176
O       7.52819      9.63697     14.44761        -0.363993      0.200201      0.471164
O       7.50676      9.07975      6.38882        -0.781726      0.169142     -0.000380
O       7.48167      8.90883     10.62823         0.237853      0.879326     -0.515656
O      11.24362      2.19363      2.20005        -0.515917     -0.452231     -0.144286
O      11.24831      1.55097     14.57145         0.451265     -0.157603     -0.014659
O      11.12248     12.75959      2.04704         1.344443      0.159102      0.543532
O      11.22989     13.44817     14.66358         0.361059     -0.062664     -0.713981
O      11.30615      2.16181      6.30706        -0.676282     -0.023441      0.294954
O      11.22357     12.80502      6.38011         0.390974      0.414257     -0.192789
O      11.29504      2.07790     10.54531        -1.174186      0.008934     -0.331797
O      11.27009     12.77783     10.30132        -0.359073     -0.009399      1.021047
O      11.22296      5.39693      2.24625         0.398110     -0.419468     -0.017120
O      11.23765      5.80705     14.71497         0.121179      0.177475     -0.603977
O      11.22860      5.38744      6.23703         0.468424     -0.092094      0.416407
O      11.23578      5.28089     10.45702         0.563135     -0.054855     -0.144929
O      11.16943      9.61492      2.25918         0.007853      0.151664     -0.196339
O      11.26515      8.96302     14.57119        -0.116392      0.308406      0.107872
O      11.15458      9.47638      6.40575         0.978360      0.708153      0.091291
O      11.22667      9.65635     10.38289         0.732679     -0.091518      0.451920
O       1.61586      3.73053      2.22892        -0.332470      0.480699      0.071733
O       2.24501      3.80145     14.56404        -0.041873     -1.049244      0.052279
O       2.07396      0.01562      2.15824         0.116084     -0.487372      0.522624
O       1.55899     14.90798     14.67133         0.244306      2.174851     -0.269988
O      13.36497      3.75671      2.09510         0.255026     -0.154629      0.649680
O      12.93976      3.72391     14.43012        -0.573948      0.103434      0.293235
O      12.83613      0.00426      2.17809        -0.082706     -0.219589      0.199786
O      13.47110      0.00846     14.51334        -0.054043     -0.636733     -0.246088
O       1.71216      3.76512      6.36556        -0.666510     -0.266640      0.010294
O       1.95917     14.90436      6.40497         0.367972      1.188264      0.034592
O      13.35293      3.77332      6.43278         0.266296     -0.013091     -0.166958
O      12.85905     14.99471      6.39850         0.055330      0.151140     -0.198147
O       1.73114      3.72379     10.47531        -0.456523     -0.089594     -0.063278
O       2.19738      0.01079     10.41900        -0.687180     -0.670919      0.038982
O      13.36731      3.76520     10.51603         0.026256     -0.448522     -0.200556
O      12.91829     14.99014     10.43195        -0.183284     -0.448526     -0.056654
O       1.97595      7.49021      2.27229         0.503210      0.263650      0.206866
O       1.59413      7.51515     14.55599        -0.154394     -0.644397     -0.189434
O      12.85432      7.50431      2.25696         0.132944     -0.577117     -0.159943
O      13.38529      7.47463     14.56269         0.197272      0.172737     -0.068477
O       1.99565      7.52448      6.36860         0.754009     -0.675920     -0.085010
O      12.78929      7.52152      6.42067         0.583403     -0.768584     -0.265834
O       2.17915      7.46125     10.47953        -0.231881      0.430890     -0.173608
O      12.86920      7.45890     10.33357        -0.275502      0.965875      0.582667
O       1.51566     11.27966      2.26841         0.049494     -0.710878      0.137785
O       2.14974     11.26036     14.45731        -0.319427     -1.253544      0.020560
O      13.26540     11.28044      2.28066         0.409641      0.012499     -0.069221
O      12.80143     11.26652     14.54396         0.181255     -0.168239     -0.147833
O       1.54084     11.22204      6.31566         0.361798     -0.151961      0.252018
O      13.28216     11.28994      6.34388         0.163030     -1.565720     -0.082854
O       1.56349     11.23613     10.36771         0.253205     -0.119728      0.254838
O      13.43090     11.20510     10.40273         0.014430     -0.141256      0.219992
O       5.79656      3.69569      2.23900         0.153605     -0.022175     -0.013819
O       5.27245      3.72154     14.43089        -0.109168      0.710051      0.646291
O       5.22519     14.96953      2.24960         0.356194      0.299344      0.023922
O       5.89557     14.94555     14.57771        -0.087622      0.326633     -0.347179
O       5.84274      3.69303      6.48267        -0.547566      0.434792     -0.212405
O       5.36800     14.95996      6.45251         0.338673     -0.405402     -0.093606
O       5.85465      3.72581     10.44148         0.158338     -0.589256      0.154028
O       5.35843     14.92589     10.44098         0.023606      1.234615      0.004581
O       5.29485      7.48884      2.33580        -0.351787      0.229183     -0.145128
O       5.96251      7.50563     14.68853        -0.237496     -0.117978     -0.528083
O       5.42232      7.46287      6.46563         0.021686     -0.115246     -0.554920
O       5.27174      7.46833     10.38331        -0.029762     -0.143182      0.375496
O       5.88777     11.21459      2.31529        -0.226271      0.150638     -0.566293
O       5.24623     11.23504     14.43678         0.157383     -0.210559      0.415247
O       5.88590     11.20184      6.38785        -0.040070      0.465400      0.305894
O       5.83400     11.18566     10.51084         0.633799      0.819106     -0.019497
O       9.03485      3.73598      2.43990         0.316660     -0.550854     -0.962055
O       9.74434      3.69580     14.48685        -0.702932      0.366413      0.402302
O       9.67290     14.93831      2.33770        -0.439535      0.981719     -0.536507
O       9.02114     14.96315     14.66173         0.000389      0.325484     -0.383578
O       9.18637      3.74206      6.25840        -0.138832     -0.414975      0.432100
O       9.74650      0.00092      6.33483        -0.533136     -0.572948     -0.030218
O       9.01460      3.69706     10.33608         0.512994     -0.275112      0.316900
O       9.68510     14.95311     10.38394        -0.148035      0.307741      0.331249
O       9.62677      7.45275      2.25949        -0.266340      0.814355     -0.290506
O       9.06793      7.43450     14.58122         0.436272      0.493673     -0.115897
O       9.58708      7.50031      6.40558        -0.019248     -0.431172     -0.061496
O       9.76398      7.39450     10.65478        -0.783442      0.714430     -1.087638
O       8.95620     11.20583      2.31860         0.245900      0.348671     -0.419081
O       9.77202     11.22448     14.55810        -0.439592      0.285031     -0.350869
O       9.17683     11.18151      6.39465        -0.332454      0.669602      0.033674
O       8.99749     11.22023     10.52968         0.588844     -0.371253     -0.272780
