  # total energy = -7865.40697378 
CRSYTAL
PRIMVEC
    15.010000000000000    0.0000000000000000    0.0000000000000000
     0.0000000000000000   15.010000000000000    0.0000000000000000
     0.0000000000000000    0.0000000000000000    16.400000000000000
PRESSURE
17.2373 17.2443 8.37659 0.087751 -0.258634 0.054186
PRIMCOORD
320 1
Pb       3.71008      3.57250      4.14589         0.134632      0.504478      0.006811
Pb       3.66618      3.79967     16.33248         0.341291     -0.531397     -0.273110
Pb       3.80027     14.92056      4.18532        -0.348996      0.194502     -0.620812
Pb       3.84670      0.06560     16.36071        -0.303769     -0.330245     -0.159198
Pb      14.98214      3.78321      4.23576         0.004597     -0.322245     -0.574642
Pb      14.87550      3.74246      0.05455         0.733555     -0.036126     -0.306730
Pb      14.91584      0.00087      4.30169        -0.014869      0.013455     -1.514019
Pb       0.08051      0.04091     16.29829        -0.967878     -0.067009      1.089957
Pb       3.69641      3.74263      8.12470         0.142694      0.112868     -0.096887
Pb       3.80840     14.99492      8.29537        -0.903172     -0.275390      0.046314
Pb       0.06894      3.75487      8.12456        -0.005189     -0.107887      0.368268
Pb       0.14253     14.90407      8.24484        -0.338026      0.221852      0.409397
Pb       4.02100      3.69679     12.35331        -1.079504      0.147689      0.112624
Pb       3.68279     14.98576     12.34544         0.288430     -0.198215     -0.174249
Pb       0.07088      3.85597     12.27769         0.197739     -0.578429     -0.104352
Pb      15.00217     14.97037     12.22851        -0.091792     -0.155910     -0.516610
Pb       3.67830      7.62373      4.22074        -0.234911     -0.799763     -0.957446
Pb       3.75339      7.54201      0.01087        -0.131812     -0.039009     -0.279067
Pb      14.87838      7.57916      4.10618         0.228136     -0.116418     -0.413840
Pb      14.90699      7.47298      0.04061         0.136520     -0.012596      0.166071
Pb       3.72101      7.52808      8.27650         0.505092     -0.347383      0.052844
Pb       0.04108      7.49924      8.10588        -0.419468      0.419647      0.684384
Pb       3.70234      7.29064     12.39715         0.660045      0.367814     -0.300871
Pb      14.97886      7.47208     12.23785        -0.013259      0.006439     -0.044546
Pb       3.58423     11.21202      4.09310         0.302668      0.645911     -0.561606
Pb       3.67684     11.31829      0.06279         0.268662     -0.183601     -0.703444
Pb      14.88296     11.18135      4.13320         0.682176      0.448231     -0.323545
Pb      14.93571     11.34352      0.06992        -0.103918     -0.220399     -0.506278
Pb       3.54084     11.22393      8.26079         0.992383      0.203303      0.228511
Pb      15.00508     11.16889      8.10382        -0.752407      0.355989      0.976143
Pb       3.67039     11.08649     12.45922        -0.021397      0.720253      0.037172
Pb      14.95615     11.18870     12.32139         0.078876      0.826789     -0.039218
Pb       7.46209      3.87543      4.24662         0.299872     -0.807164     -0.894680
Pb       7.53437      3.70220      0.22383         0.097402      0.163258     -0.778193
Pb       7.56746      0.02722      4.25945        -0.414427     -0.177809     -0.472081
Pb       7.62006      0.02773      0.02034        -0.273101     -0.140339     -0.249674
Pb       7.59921      3.75171      8.14470        -0.547399     -0.467880      0.260105
Pb       7.46422     14.98247      8.30201         0.134421     -0.237705      0.114225
Pb       7.57061      3.73582     12.39102         0.071481      0.467630     -0.511899
Pb       7.53492     14.99731     12.25120        -0.283902     -0.049970      0.248834
Pb       7.33155      7.46863      4.19066         0.441485      0.601653     -0.670161
Pb       7.50590      7.38472      0.10400        -0.056421      0.658531     -0.334436
Pb       7.51874      7.37612      8.11808        -0.111699      0.816870      0.157036
Pb       7.57989      7.57992     12.34759         0.025674     -1.073229     -0.131403
Pb       7.26085     11.19172      4.19945         0.494057      0.095424     -0.669697
Pb       7.37093     11.30847      0.05653        -0.028381     -0.771573      0.132701
Pb       7.42052     11.11564      8.22359        -0.094241      0.537738      0.142974
Pb       7.52422     11.23085     12.40560         0.253922      0.118535     -0.716889
Pb      11.29735      3.67743      4.25058        -0.359654     -0.065771     -0.654087
Pb      11.36568      3.80558      0.11482        -0.613523      0.011476     -0.129541
Pb      11.25797     14.98069      4.18963        -0.064400      0.406856     -0.080782
Pb      11.41057      0.14024     16.38059        -0.427864     -0.762264     -0.286798
Pb      11.44109      3.71564      8.27304        -0.782030     -0.014227     -0.388475
Pb      11.27422     14.89998      8.21347         0.278560      0.321302      0.294091
Pb      11.28740      3.73041     12.18559        -0.387507      0.308112      0.083426
Pb      11.29777     14.87637     12.35673         0.188805      0.241243     -0.793340
Pb      11.23280      7.55045      4.14492        -0.221267      0.009451     -0.703063
Pb      11.21827      7.43637      0.16922         0.184843      0.423799     -0.388231
Pb      11.23433      7.51485      8.10203         0.397948      0.187197      0.488357
Pb      11.25748      7.43773     12.35473        -0.207609      0.491664     -0.378718
Pb      11.03007     11.28399      4.15711        -0.161364      0.151009     -0.525765
Pb      11.14702     11.32191      0.02241         0.754940     -0.102523     -0.077226
Pb      11.15612     11.25776      8.22663         0.410047      0.189891      0.259167
Pb      11.23627     11.10833     12.41246         0.218973      0.737856     -0.545799
Ti       1.91379      1.88119      2.01447        -1.232154     -1.360793      0.083751
Ti       1.82883      1.86866     14.32503         1.307109      0.945727     -0.301824
Ti       1.83971     13.10305      2.04406        -0.642188      1.334515      0.880105
Ti       1.83303     13.15100     14.44132         1.178844     -1.024320     -0.255773
Ti      13.16434      1.77070      2.08357         0.470737      0.213326      0.847662
Ti      13.13051      1.97339     14.18777         0.887011     -0.938585     -0.674989
Ti      13.09184     13.10474      2.11853         0.403362      0.690219     -0.511472
Ti      13.13333     13.20266     14.32869        -0.036211     -0.929541     -1.459351
Ti       1.84059      1.83794      6.15288         0.164998     -0.532268      0.471484
Ti       1.79109     13.10204      6.05556         0.753734      0.374929      0.721415
Ti      13.12650      1.89181      6.27731        -0.659135     -0.372712     -0.529365
Ti      13.07594     13.13196      6.21225        -0.366604      0.087174      0.451785
Ti       1.87693      1.88440     10.27190        -0.935004     -1.023226      0.310990
Ti       1.92602     13.04099     10.32072        -0.796740      0.419077      0.595349
Ti      13.11723      1.91494     10.28468         0.855105     -2.052158      0.056993
Ti      13.16009     13.07044     10.25416        -0.043668      0.320921      1.140815
Ti       1.88166      5.56279      2.12554         0.033299      0.947762      0.360067
Ti       1.81574      5.64591     14.39043         1.409643     -0.341741      0.123114
Ti      13.18251      5.54694      2.17334        -0.899773      1.175988     -0.315016
Ti      13.11128      5.62746     14.33153         0.001006      0.198755     -0.005530
Ti       1.82083      5.72141      6.14375         0.824194     -1.332905     -0.005371
Ti      13.06692      5.68825      6.16759        -0.412056     -0.840367     -0.143136
Ti       1.93155      5.61101     10.26095        -0.072173     -1.168268     -0.448773
Ti      13.17720      5.63542     10.18802        -0.895137      0.709202      0.485926
Ti       1.79884      9.33110      1.94191        -1.232035     -0.124345      0.370901
Ti       1.76869      9.34760     14.36353         1.265848      0.480121      0.860037
Ti      13.02644      9.47114      2.02068         0.320517     -1.410777     -0.175786
Ti      13.12031      9.35380     14.42557        -0.977474      1.607815      0.091656
Ti       1.87628      9.41648      6.19282        -0.958178     -0.734308      0.442935
Ti      13.07087      9.43243      6.14476         0.592933     -0.937456      1.163289
Ti       1.84004      9.30208     10.29515         0.779915      0.587577      0.450069
Ti      13.12207      9.39721     10.28086        -0.699799     -0.211595     -0.993053
Ti       5.68831      1.82621      2.03230        -0.476740      0.485050     -0.189257
Ti       5.73864      1.83307     14.41008        -1.328436     -0.474288     -0.186702
Ti       5.59102     13.16171      2.04550        -0.351869     -0.279318      0.143219
Ti       5.69067     13.03241     14.34396        -1.918394      0.901850     -0.283534
Ti       5.57859      1.79475      6.27093        -0.367962      0.543531     -0.761344
Ti       5.48791     13.06825      6.26011         0.725474     -0.173189     -0.167687
Ti       5.56014      1.78351     10.32181         0.414908      0.334706      0.511758
Ti       5.64607     13.02379     10.33169        -0.226438      0.415815      0.324430
Ti       5.58376      5.57474      2.08538        -0.084964      0.325865      0.357799
Ti       5.66986      5.58435     14.46422        -0.103195     -0.176638     -0.486800
Ti       5.54485      5.61975      6.13168        -0.636508     -0.924043      0.897003
Ti       5.69029      5.60301     10.22240        -0.046425      0.291881      1.869597
Ti       5.45581      9.36437      2.13304         1.722723      0.186224     -1.290148
Ti       5.60958      9.25213     14.36167        -0.590604      1.265826      2.057699
Ti       5.52648      9.34299      6.23636         1.126257      0.587673      0.276944
Ti       5.63079      9.35913     10.41014        -0.394133     -1.689337     -1.461289
Ti       9.44377      1.85267      2.13523        -0.287251      0.236491      0.379248
Ti       9.45555      1.91777     14.43742        -0.459408     -0.188007     -0.812715
Ti       9.32810     13.16126      2.10233        -0.171000     -0.930236      0.244641
Ti       9.40742     13.17778     14.34848         0.360774      0.381243      0.223611
Ti       9.34045      1.85164      6.24947         0.039879      1.081935     -0.269542
Ti       9.28394     13.22615      6.23199        -0.316145     -1.163053      0.413368
Ti       9.37896      1.87375     10.31273        -0.111053     -0.862560     -0.149021
Ti       9.39433     13.11957     10.29406         0.172884     -0.981726     -0.148587
Ti       9.36943      5.63955      2.13162         0.204542     -0.774290      0.893880
Ti       9.39584      5.64759     14.43957        -0.498539      0.057851     -0.247555
Ti       9.34857      5.59134      6.12766        -0.188465      0.907428      0.462960
Ti       9.44965      5.66448     10.14590        -1.389513     -1.030808      1.230520
Ti       9.23490      9.38031      2.11537         0.095200      0.591243      0.801158
Ti       9.34341      9.45436     14.43774         0.766800     -1.920111      0.138990
Ti       9.36356      9.43557      6.16175        -0.552866     -0.916949     -0.744814
Ti       9.40171      9.33930     10.13385        -0.106405      0.955514      2.534221
O       1.76208      1.91713      0.17636        -0.260230      0.589440      0.519056
O       1.72351      1.78000     12.47890         0.710651      0.040229      0.417837
O       1.73661     13.03714      0.24046         0.152089      0.102161     -0.628483
O       1.80367     13.15344     12.63163         0.379956     -0.090150     -0.525753
O      13.17574      1.89995      0.25399        -0.240182     -0.265876     -0.358524
O      13.20678      1.96921     12.34636        -0.232103      0.188073      1.184793
O      13.13420     13.14204      0.28037        -0.238515      0.212053     -0.056477
O      13.11369     13.06937     12.39371         0.236095      0.316798      2.152242
O       1.90223      1.85794      4.33692        -0.345762     -0.253523     -0.127493
O       1.79376     13.10492      4.26980         0.285378     -0.052163     -0.065531
O      13.13383      1.93449      4.41141         0.136792      0.063926      0.100408
O      12.98758     13.17752      4.40501         0.300266     -0.566194     -0.309128
O       1.85121      1.76737      8.43198         0.274731      0.365526     -0.526560
O       1.90003     12.99816      8.50722        -0.399216      0.391378     -0.292699
O      13.01616      1.90811      8.43761        -0.038040     -0.229656     -0.772651
O      13.17428     13.10509      8.43914        -0.190171     -0.140968     -1.190867
O       1.80307      5.63008      0.31853        -0.049000     -0.448073     -0.462926
O       1.85248      5.65056     12.56247        -0.307537      0.132373     -0.433626
O      13.17285      5.62847      0.26504         0.164774     -0.084942      0.242721
O      13.07523      5.52351     12.46609         0.034099      0.329297      0.904981
O       1.78232      5.77110      4.34746         0.219851     -0.455015      0.141377
O      13.04879      5.63644      4.29418        -0.041260     -0.374871      0.585195
O       1.88680      5.60179      8.37837        -0.150724      0.007212      0.888983
O      13.08390      5.65100      8.38020         0.076922      0.140696     -0.706405
O       1.88223      9.49909      0.14890        -0.300122     -0.638009      0.598882
O       1.83914      9.30665     12.55144        -0.246114     -0.210233     -0.947557
O      13.12823      9.45934      0.20129        -0.008142     -0.085877      0.303412
O      12.96931      9.45811     12.55713         0.780840     -0.560607      0.123787
O       1.60572      9.29732      4.43934         0.936543      0.337643     -1.074457
O      13.06305      9.36322      4.35860         0.126624      0.339300     -1.050982
O       2.00325      9.32985      8.44402        -0.364023     -0.349769     -0.049975
O      13.00203      9.29758      8.42582         0.543013      0.128824      0.428602
O       5.59724      1.93972      0.17216         0.422001     -0.508451      1.594415
O       5.55871      1.83879     12.49980         0.509302     -0.066779      1.123624
O       5.49844     13.10299      0.23770         0.868046      0.073369     -0.086735
O       5.66764     12.98637     12.48054         0.053704      0.071963      1.581334
O       5.46310      1.73582      4.37184         0.488503      0.638790      0.054823
O       5.55455     13.07638      4.41641        -0.210148      0.076547     -0.263664
O       5.54994      1.69195      8.49869        -0.182985      0.466044     -0.735283
O       5.73243     13.00086      8.47907        -0.639884      0.367993     -0.149249
O       5.60248      5.48251      0.28732         0.053222      0.734454     -0.291949
O       5.71064      5.67381     12.61463        -0.517706     -0.470975      0.550819
O       5.54380      5.53728      4.36205         0.194844      0.121638     -0.881887
O       5.69337      5.65424      8.44430        -0.272880     -0.026526     -0.719875
O       5.59456      9.39526      0.29211        -0.354546     -0.287598      0.419453
O       5.72132      9.14820     12.60843        -0.293723      0.873709     -1.723877
O       5.49303      9.32302      4.36215         0.259550      0.725281     -0.025695
O       5.52703      9.37445      8.45441         0.263638     -0.485752      0.283470
O       9.45451      1.99514      0.32182         0.149844     -0.825599     -0.529363
O       9.21039      1.77106     12.57223         0.720266      0.628515      0.747046
O       9.23341     13.02442      0.31756         0.535771      0.188843     -0.967790
O       9.40067     13.28902     12.52566        -0.207499     -0.898325      0.395191
O       9.25084      1.88930      4.41317         0.072058     -0.325787     -0.646064
O       9.47603     13.30272      4.42951        -0.522705     -0.469677     -0.769850
O       9.36749      1.91959      8.47162         0.052410     -0.199888     -0.253639
O       9.28087     13.01451      8.44062         0.238048      0.647180     -0.025525
O       9.31230      5.68112      0.32932         0.149346     -0.315055     -0.522414
O       9.40442      5.63399     12.60236         0.321747     -0.171554      0.023305
O       9.38689      5.61638      4.33564        -0.316057     -0.002705     -0.773812
O       9.29886      5.51716      8.34502        -0.160581      0.243248      0.139421
O       9.10014      9.40931      0.32645         0.926842      0.151962     -0.805596
O       9.52883      9.32253     12.58095        -0.566253      0.047749      0.599477
O       9.27310      9.30945      4.30715         0.525446      0.016494      1.158914
O       9.34350      9.45490      8.38927         0.216444     -0.468408     -1.665568
O       3.68310      2.26105      2.20029         1.380336      0.086396      0.113587
O       3.75277      1.75358     14.69992        -0.229799      0.177766     -0.851634
O       3.68080     12.86353      2.24607         0.434743     -0.305534      0.680992
O       3.74643     13.35123     14.67046        -0.034837     -0.547080     -0.433530
O      14.95597      1.45154      2.38482         0.972448      0.792834     -0.180486
O      14.98687      2.05294     14.42728        -0.306197      0.397955      0.932996
O      14.99003     13.39196      2.37476        -0.069793      0.072275      0.153674
O      14.95897     12.96755     14.61202         0.287530      0.461491      0.245876
O       3.63612      2.06504      6.44218         1.259460     -0.244331      0.335784
O       3.61416     12.84413      6.43174         1.367887     -0.193035     -0.023902
O      14.95309      1.62869      6.42377         1.259436      0.445797      0.370261
O      14.99252     13.21570      6.39190        -0.893701      0.200347      0.303104
O       3.67264      1.78342     10.55802         1.325589      0.541540      0.157470
O       3.81625     12.83345     10.62100        -1.111021     -0.317349     -0.147990
O      14.97949      1.69605     10.31970         0.317153     -0.178702      0.430671
O       0.04022     13.20871     10.59918         0.177689      0.081039     -0.330511
O       3.75880      5.31183      2.39559        -0.872913     -0.179523     -0.236634
O       3.78607      5.78795     14.70498        -0.996773      0.097095     -0.164683
O      14.98451      5.89885      2.46169        -0.144691     -0.320335     -0.552673
O       0.00611      5.50079     14.60313        -1.946243     -0.545642     -0.000005
O       3.73621      5.53444      6.40037        -1.357251     -0.725620      0.485663
O      14.93628      5.86845      6.44901         0.070971     -0.509218     -0.367749
O       3.73038      5.47554     10.57275         0.537397      0.160996     -0.230514
O      14.97062      5.58336     10.46282         1.468127      0.715170      0.262089
O       3.63080      9.59934      2.32361        -0.108027      0.018561      0.404083
O       3.69252      9.19901     14.59957         0.413886     -0.400181     -0.190481
O      14.92270      8.98509      2.23373         0.704193      0.693117      0.160031
O      14.97146      9.53180     14.63056        -0.676260      0.348413      0.031243
O       3.71204      9.70223      6.32637        -0.394223     -0.487502      0.094488
O      14.95898      9.21923      6.48861         0.027646     -0.330997      0.295375
O       3.79273      9.59556     10.61711        -1.008621     -0.832325     -0.153119
O       0.00742      9.12692     10.41455        -0.138571     -0.421003      0.438066
O       7.52394      1.44055      2.28264        -0.684143      0.485421     -0.211067
O       7.55325      1.89305     14.78908         0.264598      0.459675     -0.377749
O       7.43076     13.47445      2.25691         0.125173     -0.254895      0.646759
O       7.55518     12.99181     14.55198        -0.656488     -0.372305      0.289807
O       7.40229      1.64837      6.51382         0.162106      0.001040     -0.026534
O       7.43327     13.40029      6.40715        -0.342441     -0.266511     -0.067974
O       7.44557      1.60086     10.50160         0.439772      0.422103     -0.158191
O       7.49367     13.28857     10.56484         0.661205     -0.316764      0.028615
O       7.46887      5.85753      2.40744         0.156758      0.011327     -0.025098
O       7.50134      5.53884     14.70329         0.435959     -0.332108      0.198160
O       7.37786      5.82202      6.35834         1.464639     -0.020860      0.065100
O       7.54146      5.63727     10.61443         0.062008      0.292040     -0.590577
O       7.39537      9.24517      2.33849        -0.184070     -0.422381      0.700147
O       7.48278      9.57546     14.57997         0.236558      0.245539     -0.079481
O       7.47062      9.10833      6.34152        -0.117112      0.172843      0.445556
O       7.55368      9.05458     10.49999        -0.168763      0.391260     -0.009487
O      11.28643      2.06057      2.39557        -0.136302      0.008091      0.115973
O      11.32051      1.66516     14.56449        -0.880663      0.704123      0.029607
O      11.20275     12.79041      2.26532         1.017394     -0.014731      0.335283
O      11.27443     13.35178     14.54776        -0.625090      0.113688      0.654496
O      11.18884      1.97290      6.35783         0.556224      0.626432      0.415193
O      11.18301     12.98676      6.53090         0.548054      0.340883      0.038006
O      11.25666      1.91074     10.65025        -0.570674      0.329431     -0.476088
O      11.30210     12.85799     10.56776        -1.020491      0.128128     -0.668774
O      11.25835      5.32259      2.23716        -0.405932      0.191078      0.329402
O      11.25396      5.76832     14.79713         0.483630      0.212090     -0.374533
O      11.11916      5.33117      6.36057         2.374915      0.085799      0.340242
O      11.24866      5.50965     10.36500         0.301938     -0.918107      0.558761
O      11.20872      9.69043      2.31758        -0.417412     -0.034182     -0.103163
O      11.28573      9.22459     14.82992        -1.155888      0.075659     -0.318217
O      11.27529      9.53481      6.47054        -2.028372      0.095227     -0.166347
O      11.27303      9.60639     10.52873        -0.307279     -0.422635     -0.329092
O       1.45398      3.74395      2.42196         0.277696     -0.296247     -0.320225
O       2.00667      3.80097     14.47416        -0.019703     -1.083591      0.536154
O       2.25053      0.01345      2.13986        -0.706263      0.058980      0.382892
O       1.71517      0.03973     14.80174         0.326344     -0.376299     -1.130895
O      13.32990      3.68634      2.22454         0.673611      0.410268      0.507032
O      12.86761      3.77217     14.57049         0.460595      0.328280      0.258383
O      12.91806     14.94743      2.50412        -0.655052      0.166678     -0.560757
O      13.23391      0.10905     14.43770         0.553561     -0.874129      0.597990
O       1.74778      3.74823      6.36047        -0.790720      0.421410      0.165731
O       2.11555     14.91875      6.43023        -0.743345      0.624871     -0.053686
O      13.27830      3.78184      6.46050        -0.088495      0.042193      0.101653
O      12.97613      0.03019      6.45824        -0.230979     -1.251899      0.117084
O       1.86007      3.67944     10.51507        -0.599063      1.133927      0.051204
O       2.00843     14.88748     10.54649        -0.019901      0.479346     -0.157887
O      13.25821      3.74915     10.38992        -0.604946      0.244783      0.145322
O      13.00254     14.91571     10.48135        -0.104574      1.257940     -0.130702
O       2.10251      7.48028      2.25820         0.110162      0.324301      0.067691
O       1.57564      7.49548     14.70024         0.634740      0.119273     -0.103858
O      12.78185      7.56488      2.26996         0.161375     -0.894084      0.171235
O      13.26178      7.52151     14.59044         0.128713     -1.059305     -0.235039
O       2.04767      7.49917      6.48178         0.030309      1.221560      0.269156
O      12.78816      7.48453      6.32139         0.404343      0.006528      0.197879
O       1.96000      7.39311     10.62075         0.098984      1.280133     -0.313509
O      12.97742      7.49541     10.57643         0.162846     -0.471834      0.188521
O       1.60217     11.20892      2.33794        -0.341148     -0.337318      0.252687
O       2.01089     11.24436     14.52170         0.061270      0.312327      0.246056
O      13.58050     11.25627      2.27454        -0.959805      0.044285      0.131747
O      12.87778     11.37560     14.54020         0.279588     -1.395174      0.380358
O       1.63431     11.22853      6.50133         0.207151      0.070703     -0.515462
O      13.22224     11.22443      6.37247         0.269055      1.286862      0.271849
O       1.62822     11.11350     10.47308         0.406827      0.868622      0.484806
O      13.45893     11.21919     10.51158        -0.359577     -0.949041     -0.296081
O       6.02585      3.76272      2.23719        -0.500136     -1.603057      0.764784
O       5.53989      3.68950     14.68268        -0.071423      0.639608     -0.690978
O       5.21523      0.02205      2.25663         0.302299      0.161233      0.089030
O       5.76996     14.96911     14.65895         0.160819     -0.313141     -0.152169
O       5.70358      3.67127      6.50048         0.015237      0.835568     -0.021665
O       5.25895     14.96760      6.39082         0.089140     -0.521162      0.510963
O       5.58513      3.71711     10.67464         0.845541     -0.379590     -0.895862
O       5.42856     14.91683     10.57804         0.010087     -0.286576     -0.141746
O       5.32593      7.50001      2.40646         0.098198     -0.402619     -0.131261
O       5.75604      7.48447     14.75275         0.166783     -0.405423      0.312418
O       5.27462      7.49494      6.28886         0.354307      0.379724      0.717901
O       5.43485      7.42533     10.62997         0.095788      0.121072     -0.561943
O       5.74866     11.27874      2.29127         0.175015     -0.158550      0.540720
O       5.38230     11.19218     14.68702         0.576140      0.630443     -0.529162
O       5.80652     11.22446      6.46714         0.193207     -0.085545     -0.322129
O       5.88973     11.11841     10.66702         0.456268      1.289927     -0.142228
O       9.09359      3.66948      2.34781        -0.214950      1.131520      0.329926
O       9.49578      3.77475     14.71525         0.222998     -0.711390     -0.337195
O       9.72890     14.94821      2.29109        -0.182002      0.822244      0.122818
O       9.36553      0.02089     14.74883        -0.497067     -0.376422      0.293730
O       9.09858      3.73024      6.30591        -0.584304      0.313471      0.584768
O       9.42927      0.05742      6.38729         0.441527     -1.198419      0.965487
O       9.24376      3.66759     10.56035         0.128677      1.412606      0.193602
O       9.55980     14.93906     10.54416        -0.021625      0.763218     -0.432816
O       9.52483      7.48844      2.33998         0.381967      0.552238     -0.046193
O       9.20537      7.51621     14.66025         0.090312      0.323161      0.314023
O       9.60433      7.47979      6.45873        -0.783864      0.212459     -0.209908
O       9.61667      7.47666     10.41236        -0.084877     -0.197883      0.167656
O       9.14525     11.27504      2.55366        -0.463923      0.084828     -0.150298
O       9.60197     11.26310     14.67915        -0.395844      0.856375     -0.533919
O       9.15443     11.28060      6.31226        -0.029862     -0.444555      0.130024
O       9.26138     11.19889     10.44570        -0.799240      0.168020      0.649922
