  # total energy = -7879.54232148 
CRSYTAL
PRIMVEC
    15.6000000000000000    0.0000000000000000    0.0000000000000000
     0.0000000000000000   15.6000000000000000    0.0000000000000000
     0.0000000000000000    0.0000000000000000    17.640000000000000
PRESSURE
-5.35284 -5.38419 -2.18922 -0.097865 0.436594 -0.09994
PRIMCOORD
320 1
Pb       3.80527      3.91347      4.31233         0.158129     -0.140370      0.243597
Pb       3.85821      3.83448     17.54096         0.164388     -0.147947      0.285626
Pb       3.99447      0.09793      4.35590        -0.543811     -0.029390     -0.785988
Pb       3.91595     15.50791     17.51968         0.014428      0.177034      0.439781
Pb      15.58531      3.85285      4.36909        -0.347690      0.125169      0.199347
Pb      15.50483      3.92070     17.60067         0.312880     -0.258896     -0.237022
Pb      15.56886      0.01424      4.43753         0.657828      0.270365     -1.172666
Pb       0.08061     15.51035     17.52055        -0.130539      0.347594     -0.617194
Pb       3.95644      3.80931      8.73206        -0.627496      0.347013     -0.165996
Pb       3.89618     15.52860      8.74278         0.209709      0.458560     -0.232222
Pb      15.53941      3.87222      8.76052         0.340865      0.236962     -0.703935
Pb       0.02276     15.40445      8.83735         0.067807      0.141748     -0.361283
Pb       3.82005      3.93289     13.24989         0.343529     -0.005369     -0.868014
Pb       3.77536     15.52128     13.13771         0.223818      0.435776      0.272038
Pb      15.48948      3.85564     13.07629         0.123992     -0.035683     -0.089506
Pb      15.57599     15.57644     13.12772        -0.165076     -0.176345     -0.055833
Pb       3.84703      7.73015      4.43925        -0.344067      0.108753     -0.678041
Pb       3.79008      7.70035      0.00119         0.123391      0.284082     -0.278864
Pb      15.50513      7.87624      4.38205         0.236656     -0.464517     -0.325083
Pb      15.54208      7.72879     17.62910         0.417253     -0.136641     -0.335298
Pb       3.96265      7.75201      8.69566        -0.775151     -0.095892      0.150051
Pb      15.54306      7.67392      8.79916         0.599343      0.389831     -0.593895
Pb       3.83059      7.68690     13.19155         0.130444     -0.162017     -0.478233
Pb      15.56549      7.79592     13.21637        -0.221993     -0.030316     -0.485793
Pb       3.88993     11.73270      4.37203        -0.201955     -0.004026     -0.257769
Pb       3.86929     11.68856      0.03438         0.454439     -0.132138     -0.833929
Pb      15.53407     11.70342      4.44386         0.407931     -0.178452     -0.669076
Pb      15.54652     11.69886      0.01640        -0.055413     -0.231037     -0.843721
Pb       3.83606     11.60761      8.75001         0.296812     -0.303086     -0.574240
Pb      15.53179     11.72203      8.78172         0.379206     -0.503494     -0.314348
Pb       3.87440     11.74104     13.17215        -0.221919     -0.412199      0.029981
Pb      15.56097     11.64790     13.10350        -0.108454     -0.015759      0.111357
Pb       7.71341      3.97724      4.34222         0.399130      0.708690     -0.229743
Pb       7.72018      3.84329     17.52411         0.003062      0.340377     -0.018414
Pb       7.82586      0.12833      4.32962        -0.046643     -0.608174     -0.684331
Pb       7.86944      0.00856     17.53755        -0.032917     -0.342068     -0.227209
Pb       7.76482      3.82428      8.82795         0.336388      0.426917     -0.499908
Pb       7.72774     15.49432      8.83110         0.675161     -0.144944     -0.367947
Pb       7.70708      3.93232     13.13688         0.105867     -0.267912      0.146715
Pb       7.73069     15.50506     13.22576         0.049846      0.282466     -0.846302
Pb       7.72481      8.00305      4.35597         0.180832     -0.770771     -0.657489
Pb       7.76799      7.81623      0.07193         0.039802     -0.130502     -0.663367
Pb       7.76906      7.76943      8.76913         0.307459     -0.036149     -0.677275
Pb       7.60622      7.75039     13.14810         0.373657     -0.251125      0.252796
Pb       7.80567     11.81986      4.37002         0.261535      0.079464     -0.447304
Pb       7.74381     11.65473      0.03116        -0.100529      0.371604     -0.328584
Pb       7.71098     11.68275      8.85401         0.220771      0.201534     -0.859015
Pb       7.86777     11.57683     13.24907        -0.088482      0.203003     -0.525263
Pb      11.57718      3.96839      4.38087         0.778051      0.265265      0.045141
Pb      11.73380      3.92966     17.57228         0.173569      0.029789     -0.532018
Pb      11.74213      0.12860      4.44930        -0.189517      0.332063     -0.949641
Pb      11.64712     15.58667     17.58111         0.117864     -0.219329     -0.808292
Pb      11.66578      3.86283      8.78466         0.048532     -0.109640     -0.390738
Pb      11.73095     15.58619      8.89076        -0.362220      0.044281     -0.543167
Pb      11.54830      3.87574     13.22714         0.058301     -0.111598     -0.843492
Pb      11.68810     15.45559     13.13862        -0.006591      0.247675     -0.597681
Pb      11.60297      7.82820      4.42130         0.272813     -0.382023     -0.695151
Pb      11.51700      7.84703     17.63604        -0.136521     -0.295832     -0.433449
Pb      11.68598      7.74909      8.73565        -0.053966      0.256627     -0.274531
Pb      11.59344      7.78754     13.20423         0.287711     -0.198951     -0.508219
Pb      11.73405     11.92411      4.36301        -0.026182     -0.710238     -0.583507
Pb      11.78456     11.68975     17.59598        -0.076353      0.553214     -0.540748
Pb      11.72054     11.59153      8.69828        -0.176196     -0.104922      0.442980
Pb      11.71850     11.66385     13.09387         0.201909      0.073596     -0.288736
Ti       1.93905      2.03126      2.34589         0.275125     -1.502810      0.574973
Ti       1.85382      1.92730     15.48336         1.227640     -0.383997      1.260838
Ti       1.98533     13.75095      2.20992        -0.252965      0.117468      3.298468
Ti       1.97087     13.56902     15.58433        -0.185514      0.343970     -0.101392
Ti      13.65048      1.89068      2.30592        -0.027151      0.440401      2.404662
Ti      13.59346      1.90690     15.52202         0.222898     -0.388331      0.494101
Ti      13.71550     13.66654      2.23042        -0.038200     -0.022809      1.708309
Ti      13.67065     13.62555     15.40475        -0.105581     -0.033624      2.192797
Ti       2.02979      1.88830      6.84523         0.192147      0.923571     -0.925435
Ti       2.12222     13.61064      6.63393        -0.832735     -0.156565      0.719448
Ti      13.80388      1.77617      6.82249        -1.029754      1.498281      0.125917
Ti      13.77056     13.60665      6.77160        -0.263781     -0.625077      0.851685
Ti       1.98544      1.91582     11.10836         0.488817      0.512736     -0.314335
Ti       1.94857     13.51748     11.10730        -0.641347      0.468591      3.202019
Ti      13.66816      1.91907     11.10407        -0.582999     -0.147818      1.419600
Ti      13.67686     13.58987     11.09124        -0.386092     -0.090912      0.304059
Ti       1.97009      5.86584      2.32669        -0.265272      0.281848      0.180676
Ti       1.94450      5.75673     15.52619         0.058153      0.492801      1.594853
Ti      13.76013      5.77433      2.40071        -1.357719      0.237394      1.479664
Ti      13.64652      5.87370     15.56044        -0.210703     -0.398106      1.500604
Ti       1.96874      5.79717      6.70399         0.243531      0.036050      0.286312
Ti      13.59891      5.76665      6.75758         0.075156      0.435738     -0.998689
Ti       1.86880      5.77745     11.16189         0.435256      0.187663     -0.158882
Ti      13.57455      5.84522     11.05062         0.161258     -1.023148      1.348542
Ti       2.02386      9.82245      2.33578        -0.428374     -0.394192      2.200468
Ti       1.91304      9.71747     15.61794         0.687278      0.149187      0.713954
Ti      13.72274      9.77887      2.39057        -0.817882     -0.458461     -0.497730
Ti      13.59914      9.68759     15.74758         0.519979      0.835439     -1.488018
Ti       1.95074      9.65710      6.71541        -0.689560     -0.229643      0.297115
Ti      13.71808      9.73998      6.79147        -0.280270     -0.801951      0.541579
Ti       2.02845      9.65090     11.17084        -0.837232     -0.428558     -0.561060
Ti      13.64835      9.67358     11.10227         0.235884      0.963827     -0.209770
Ti       5.91034      2.04411      2.38606        -0.820815     -0.521272     -0.467879
Ti       5.73780      1.93859     15.60871         0.991495     -0.147093      0.860145
Ti       5.81253     13.63016      2.33949         0.864416      0.420902     -0.163253
Ti       5.92860     13.61469     15.58570        -0.433807     -0.356465      1.592361
Ti       5.92674      1.94950      6.81496        -0.796887      0.339175     -0.330919
Ti       5.94620     13.65648      6.68992         0.659871     -0.154977     -0.046463
Ti       5.82635      1.94012     11.22348         0.246540     -0.350392      1.777561
Ti       5.84269     13.57737     11.18430         0.484378      0.425611      0.729274
Ti       5.78394      5.82429      2.26974         1.223208      0.926303     -0.436163
Ti       5.77625      5.88212     15.66766         0.922269     -0.498655     -1.573103
Ti       5.87186      5.80483      6.70398        -0.238946      0.145903      0.974648
Ti       5.87692      5.82698     11.07451        -0.805885     -0.471582      2.256963
Ti       5.84957      9.81127      2.44615         0.295972     -0.846995      0.577422
Ti       5.89026      9.68869     15.63006        -0.542949      0.922753     -0.278287
Ti       5.82492      9.71118      6.77177         0.447341      0.505308      0.282310
Ti       5.89031      9.69570     11.18216        -1.013489      0.446205     -1.438754
Ti       9.77770      2.03597      2.33152         0.421804     -0.646460      0.690916
Ti       9.68074      1.98588     15.52079         0.888597     -0.536845      1.408098
Ti       9.78340     13.68972      2.31158        -0.489392     -0.061803     -0.479262
Ti       9.74705     13.60406     15.49998         0.810086      0.300420      1.186979
Ti       9.80925      1.93086      6.80697         0.261672     -0.200163      1.185295
Ti       9.93219     13.63230      6.74646        -1.142668     -0.222080      3.171963
Ti       9.78255      1.85290     11.14492        -0.205776     -0.301109      1.585839
Ti       9.73389     13.53630     11.06966        -0.012607      1.114611      0.188186
Ti       9.78958      5.87468      2.21754        -0.544551     -0.192930     -0.148051
Ti       9.66144      5.79730     15.57581         0.110384      0.681939      1.348683
Ti       9.73295      5.84531      6.86594        -0.431791     -0.363526     -0.158857
Ti       9.71372      5.80280     11.09016         0.379943     -0.324585      0.227350
Ti       9.77875      9.77126      2.33477        -0.009576      0.397690      2.503686
Ti       9.72239      9.80234     15.51862        -0.559746     -0.208912      0.239858
Ti       9.75206      9.78701      6.70837         0.113278     -0.682952      2.132753
Ti       9.74726      9.62711     11.12845         0.344054      0.523765      0.184748
O       2.02799      1.99001      0.63864        -0.391509      0.149138     -0.375408
O       1.90627      1.96933     13.74637         0.016144      0.056274     -0.209966
O       1.98516     13.76799      0.52118        -0.167108     -0.304137     -1.829276
O       1.93738     13.53567     13.81728         0.710415     -0.227194     -0.070623
O      13.71436      2.04898      0.63307        -0.034861      0.031401     -1.650340
O      13.57421      1.80675     13.76676         0.044041      0.428777      0.477537
O      13.59961     13.57992      0.54022         0.207293     -0.198742     -1.412106
O      13.66429     13.63404     13.69423        -0.287570     -0.127109     -0.693048
O       2.00205      1.92552      5.06118         0.029505     -0.253218      0.108193
O       2.10515     13.64136      4.89014        -0.453865      0.129377      0.981285
O      13.66725      1.80505      5.04762         0.174186     -0.569020      0.597209
O      13.80716     13.49651      5.02582        -0.119231      0.694381     -0.824001
O       2.19362      1.96329      9.27470        -0.899846     -0.381547      1.569728
O       1.96996     13.61789      9.43084         0.188735      0.068220     -1.787361
O      13.70170      1.78882      9.36945         0.122608     -0.084659     -0.517370
O      13.82165     13.54981      9.30513         0.004420      0.313233     -0.097030
O       2.07960      5.82985      0.54402        -0.412917     -0.020160      0.738750
O       1.96058      5.78426     13.78235        -0.032948      0.024226     -0.439083
O      13.84410      5.63142      0.66534        -0.356636      0.321543     -0.935781
O      13.68157      6.11080     13.87413        -0.129942     -0.349435     -1.310092
O       2.02749      5.85752      4.94112         0.213364      0.046790     -0.003860
O      13.54790      5.83662      4.95639         0.065058     -0.025270      1.752801
O       1.81157      5.88485      9.41871        -0.000090     -0.370262      0.054005
O      13.72795      5.79565      9.32316        -0.078418     -0.066402     -0.312410
O       1.93827      9.69749      0.63821        -0.034688      0.191387     -1.095315
O       1.92376      9.81045     13.88102         0.058110     -0.270024     -0.595411
O      13.67253      9.96586      0.60092         0.169456     -0.544408     -0.040803
O      13.60612      9.68980     13.98118         0.041989     -0.340743     -0.003050
O       2.05645      9.63402      4.94552        -0.241501     -0.051525      0.100985
O      13.76473      9.63468      5.05052        -0.109663      0.158133     -0.898445
O       1.95974      9.44415      9.44102         0.147046      0.754532      0.368869
O      13.64712      9.76975      9.34653         0.142881     -0.186385      0.317130
O       5.97671      2.23922      0.66579        -0.193960     -0.615790     -0.681457
O       5.82896      1.93204     13.90635        -0.224644      0.006279     -0.842729
O       5.97549     13.44941      0.56207        -0.211975      0.176548      1.320329
O       5.90364     13.67777     13.84876        -0.350005     -0.373599     -0.708506
O       5.92960      2.01429      5.05431         0.038627     -0.308239     -0.199615
O       5.96739     13.72375      4.92204        -0.011049      0.068561      0.726238
O       5.84047      1.90716      9.51552         0.003113      0.074023     -1.497341
O       5.81835     13.63105      9.43712         0.014773      0.060063     -0.308801
O       5.81134      5.84238      0.47366        -0.052703     -0.184088      0.617910
O       5.81149      5.82390     13.79910        -0.030994      0.579060      1.146766
O       5.87964      5.78443      4.95814         0.009559      0.161056     -0.151608
O       5.95039      5.81329      9.38276        -0.005215      0.032957     -0.996733
O       5.95578      9.93950      0.74958        -0.104892      0.101176     -1.691529
O       5.93947      9.65719     13.83193        -0.000256      0.155354      0.288737
O       5.85158      9.73907      5.03757        -0.170026     -0.348787     -0.460991
O       5.79375      9.80452      9.37950         0.132235     -0.142101      0.529828
O       9.80185      1.97716      0.59745        -0.092285      0.108808     -0.209446
O       9.83938      2.03028     13.82207        -0.028563     -0.235872     -1.127020
O       9.77053     13.74417      0.52361         0.124444     -0.032194      0.746773
O       9.86317     13.68381     13.78422        -0.430326     -0.242056     -0.979801
O       9.86206      1.87554      5.06064        -0.107204      0.067105      0.285636
O       9.86106     13.56204      5.06746         0.224008      0.167160     -2.317338
O       9.79822      1.75900      9.42658        -0.201691      0.328569     -1.000582
O       9.59077     13.61172      9.30534         0.484792     -0.301859      0.738541
O       9.88584      5.81559      0.35331        -0.177037      0.278425      1.764731
O       9.73489      5.87289     13.84734         0.159254      0.174228     -0.789703
O       9.69356      5.70826      5.12949         0.197566      0.459727     -0.469249
O       9.74029      5.82679      9.35100        -0.336700     -0.185037     -0.280381
O       9.76595      9.72415      0.65867         0.073900     -0.006294     -2.247558
O       9.48463      9.78844     13.74829         0.826648     -0.494829     -0.293168
O       9.84343      9.58238      5.00663        -0.256316      0.343076     -0.943275
O       9.85752      9.76779      9.40589        -0.506313     -0.160729      0.105165
O       3.91048      1.91490      2.71501         0.175178      0.533739      0.588628
O       3.95082      1.80060     16.11844        -0.447299      0.985011     -0.605466
O       3.91893     13.70590      2.72113         0.697689     -0.310171     -0.165250
O       3.93691     13.53612     16.23850         0.137857      0.192842     -1.337721
O      15.58468      1.82911      2.83627         0.102943      0.388557     -0.058072
O       0.09593      1.95240     16.02400        -1.014155     -0.386211     -0.324765
O       0.04649     13.73108      2.52268        -0.290484     -0.320046      0.570946
O       0.04294     13.73305     15.78098        -0.202071     -0.136797      0.868866
O       3.96626      1.96052      7.16842         0.191474     -0.114468      0.360174
O       4.01413     13.56927      7.04317        -1.107034      0.029899      0.364639
O       0.07663      1.82943      7.15598        -0.485206      0.135800      0.313247
O       0.11988     13.59950      7.29418        -0.032412      0.359178     -0.738954
O       3.87725      2.00910     11.56787        -0.893597     -0.023270      0.180683
O       3.86519     13.62143     11.70330        -0.025241     -0.398435     -0.663865
O      15.53821      2.00444     11.66019         0.377640     -0.741864     -0.788197
O      15.53586     13.54641     11.58445         1.867277      0.147905     -0.258702
O       3.89306      5.86973      2.72089         0.020583     -0.270143      0.145383
O       3.95540      5.93296     15.94356        -1.227201     -0.478029      0.161393
O      15.52768      5.74410      2.88319         1.707030      0.177807     -0.277347
O       0.08443      5.85550     16.04819        -0.396668     -0.107276     -0.287371
O       3.91693      5.88093      7.16080         0.440633     -0.253705     -0.113291
O       0.06353      5.67452      7.03285        -1.137388      0.521654      0.529726
O       3.84431      5.72728     11.50523         0.302619      0.326876      0.240674
O      15.53220      5.75235     11.59047        -0.539673      0.335209     -0.007443
O       3.95545      9.73286      2.81254        -0.864809     -0.044533     -0.078873
O       3.89280      9.81139     16.01217         0.319084     -0.147946      0.115834
O       0.00100      9.77930      2.82436         0.801476     -0.333902     -0.084535
O       0.04398      9.82247     16.01844        -0.299137     -0.933606      0.581489
O       3.76853      9.72484      7.25895         1.884973      0.220421     -0.121024
O      15.58939      9.57499      7.23388         0.079993      0.356120     -0.241084
O       3.92276      9.63803     11.56540        -0.228350      0.619477      0.375332
O      15.56733      9.88689     11.53139        -0.182194     -1.179073      0.196103
O       7.77708      2.09405      2.74295         1.200604     -0.371854      0.430212
O       7.85106      1.93305     16.00190        -0.867432      0.033299      0.035265
O       7.89943     13.63492      2.76605        -0.429361      0.053239      0.273179
O       7.82871     13.56731     15.97161         0.153403      0.562268     -0.167627
O       7.80086      1.99700      7.29120         0.503815     -0.408138     -0.296031
O       7.86122     13.65357      7.21372        -1.046668     -0.180135     -0.313336
O       7.78757      1.85497     11.70275         0.004960      0.235194     -0.399262
O       7.77478     13.66040     11.54294        -0.254687     -0.010365      0.096237
O       7.82250      5.70440      2.66730         0.271193      0.169144     -0.203079
O       7.74334      5.85241     15.99017         0.467569      0.247789      0.036271
O       7.78105      5.78640      7.27191        -0.434039      0.453747     -0.083838
O       7.83612      5.86273     11.64864        -0.900564     -0.423330     -0.570421
O       7.76406      9.78816      2.77748         0.857930     -0.102078      0.660299
O       7.87297      9.72648     16.03077        -1.135577      0.176929      0.299427
O       7.80628      9.62094      7.09239         0.075680      0.322349      0.222036
O       7.75270      9.67421     11.44137         0.924345      0.096046      0.408002
O      11.72819      1.86627      2.80986        -0.362092      0.254595     -0.047445
O      11.76232      1.94037     16.08162        -0.400542      0.389704     -0.363932
O      11.76108     13.50742      2.66765        -0.349585      0.261764      0.411093
O      11.72866     13.57976     15.92565         0.213991      0.236068      0.044472
O      11.74012      1.89601      7.30053        -0.663582     -0.484160     -0.282280
O      11.84338     13.46768      7.24935        -0.571430      0.955398     -0.719211
O      11.69270      1.82698     11.53014         0.296546     -0.254342      0.027294
O      11.75929     13.59556     11.45167        -0.860770      0.440257      0.075377
O      11.60155      5.98495      2.84495         0.380824     -0.718590     -0.447334
O      11.75634      5.75877     15.91106        -0.171021      0.307518      0.161562
O      11.67559      5.80132      7.25738         0.924085     -0.363171     -0.132602
O      11.58413      5.71933     11.51298         1.638790      0.985996      0.351618
O      11.68892      9.75522      2.72901         0.552774     -0.203656      0.235731
O      11.66875      9.76040     16.00874         0.132135     -0.090912      0.262368
O      11.73939      9.72965      7.27963        -0.236477     -0.068034     -0.655886
O      11.72275      9.75573     11.56182        -0.274863     -0.657341      0.385680
O       1.87681      3.96368      2.88536         0.399323     -0.958157     -0.561312
O       2.07146      3.83358     16.02687        -0.074657      0.445240     -0.800131
O       2.01806      0.00888      2.73820        -0.214116      0.213716      0.203944
O       2.11386     15.59023     15.99024        -0.787259     -0.143021     -0.243704
O      13.62024      3.87701      2.92698        -0.156330     -0.551947     -0.505232
O      13.75558      3.86697     16.04618        -0.248198      0.096385     -0.638063
O      13.55755     15.55095      2.60287         0.366797     -0.071594      0.535922
O      13.69870     15.57876     15.99354        -0.168472      0.137475     -0.146025
O       2.04326      3.87307      7.10399        -0.083055     -0.095111      0.468884
O       2.07613     15.57807      7.11088        -0.021244     -1.383027      0.239465
O      13.60533      3.77555      7.24339         0.537071      0.424936     -0.095679
O      13.72319     15.48534      7.22710        -0.083639      0.440993     -0.117649
O       1.81020      3.83732     11.60827         0.399531     -0.062266     -0.255409
O       1.88499      0.01162     11.63775         0.170794     -0.157533     -0.842906
O      13.56366      3.82802     11.45748         0.151523      0.497480      0.154128
O      13.73816     15.46500     11.64149        -0.308532      1.092754     -0.713739
O       1.95052      7.70508      2.70304        -0.107394      0.861029      0.194649
O       2.06850      7.67607     16.02078        -0.757001      1.133762     -0.279535
O      13.78611      7.70674      2.70963        -0.386326      1.335999     -0.003173
O      13.66718      7.76485     16.07170         0.178207      0.169121      0.615336
O       2.04332      7.75134      7.17802        -0.585633     -0.419226     -0.207354
O      13.57850      7.74235      7.19770         0.371201     -0.686550     -0.055326
O       1.85982      7.73367     11.61375         0.099554      0.221826      0.543913
O      13.64083      7.71950     11.50595        -0.052171      0.617637      0.009737
O       2.04962     11.72997      2.81199        -0.326161     -0.318219     -0.713987
O       1.94423     11.71719     16.07756        -0.021201     -0.320940      0.058291
O      13.80007     11.63394      2.80475        -0.457818      0.874476      0.238325
O      13.75000     11.69123     15.97282        -0.319044      0.347866      0.334491
O       1.85759     11.57412      7.10849         0.550080      1.193008      0.063591
O      13.70792     11.67738      6.99416         0.617178     -0.578510      0.835993
O       1.93450     11.64186     11.46911         0.607011      0.171947      0.174874
O      13.61297     11.71716     11.51433        -0.029195     -1.182205      0.369906
O       5.82454      3.96397      2.76281        -0.306831     -0.484798      0.388710
O       5.75942      3.92561     15.92298         0.295021     -0.582760      0.370619
O       5.99908     15.56437      2.65651        -0.298816      0.611301      0.389807
O       5.87642     15.52015     16.09477         0.311849      0.312541     -0.288161
O       5.78746      3.95684      7.22733         0.659080     -0.940164     -0.006185
O       5.78263      0.05798      7.20671         0.561158     -0.961295     -0.070637
O       5.88019      3.88374     11.64983        -0.008405      0.266687     -0.377342
O       5.66039      0.03715     11.75538         0.906761     -0.774041     -0.624534
O       5.95028      7.78461      2.60269        -0.207617     -0.251640      0.705730
O       5.82301      7.84076     16.10570         0.375459      0.120405     -0.016566
O       5.82012      7.80262      7.14475         0.136965     -0.181618      0.022041
O       5.78317      7.75963     11.49507         0.382035     -0.369427      0.257617
O       5.87583     11.73099      3.03286        -0.192139      0.290645     -0.817222
O       5.93644     11.67308     16.09801        -0.179815     -0.458769     -0.517307
O       5.86926     11.69783      7.13006         0.012941     -0.222943      0.270794
O       6.00109     11.68884     11.49243        -1.044323     -0.233446      0.509538
O       9.89184      3.91043      2.84836        -0.565609     -0.165531     -0.922980
O       9.67542      3.92380     15.86097         0.488120     -0.342152      0.329559
O       9.74425      0.04916      2.81235         0.145905     -0.141629     -0.008742
O       9.80605      0.01173     15.90306        -0.236785     -0.037396      0.373673
O       9.73498      3.93629      7.28319         0.215289     -1.928850      0.132435
O       9.78109     15.47828      7.20940         0.378846      1.234781     -0.202051
O       9.86642      3.83220     11.56899        -1.035745     -0.189165     -0.123666
O       9.69012     15.47199     11.51271         0.506343      0.477152      0.315588
O       9.69279      7.74126      2.69167        -0.217755      0.587331      0.019516
O       9.68852      7.90337     16.08865         0.759970     -0.967548     -0.221499
O       9.84387      7.72099      7.26605        -0.521997      1.128802     -0.182583
O       9.71251      7.71992     11.41859         0.401138      0.985076      0.551960
O       9.66433     11.72546      2.74541         0.701630     -0.253800      0.094055
O       9.74354     11.69845     15.79474         0.117913     -0.252269      0.450006
O       9.79519     11.64125      7.20620        -0.246220     -0.025959     -0.423369
O       9.87251     11.70093     11.58143        -1.085974     -0.746201     -0.003151
