  # total energy = -7882.01988775 
CRSYTAL
PRIMVEC
    15.3600000000000000    0.0000000000000000    0.0000000000000000
     0.0000000000000000   15.3600000000000000    0.0000000000000000
     0.0000000000000000    0.0000000000000000    17.440000000000000
PRESSURE
0.80872 0.348449 2.70838 -0.233091 -0.289083 0.01195
PRIMCOORD
320 1
Pb       3.87109      3.77845      4.29703        -0.190326     -0.021907     -0.528203
Pb       3.74665      3.84530     17.42934         0.320217     -0.558119     -0.131948
Pb       3.83435     15.30639      4.31712        -0.412446      0.317773     -0.750753
Pb       3.81343     15.26217     17.40211         0.231437      0.476461     -0.013205
Pb       0.02446      3.82217      4.29049        -0.356149     -0.099159     -0.336561
Pb      15.27225      3.77958     17.34467         0.198465     -0.118592      0.134678
Pb      15.35338      0.01207      4.37517        -0.370069      0.160853     -0.438237
Pb       0.13247      0.02646     17.37260        -0.744479     -0.391361     -0.430653
Pb       3.88372      3.80795      8.70279        -0.404556     -0.113987     -0.799147
Pb       3.83070     15.35562      8.54569        -0.191957      0.118201      0.153887
Pb       0.13148      3.83460      8.73959        -0.285605     -0.222682     -0.700751
Pb      15.35174     15.28692      8.69468         0.276355      0.396866     -0.370695
Pb       3.85544      3.87075     13.10840         0.337709      0.396883     -0.479180
Pb       3.92516      0.11126     13.10042        -0.476460     -0.371301     -1.151284
Pb       0.02354      3.86075     13.00063        -0.838134     -0.151077     -0.241236
Pb      15.32907     15.29860     13.10629        -0.143797      0.506822     -0.895908
Pb       3.79202      7.65395      4.36553        -0.188898     -0.487341     -0.390794
Pb       3.89607      7.67921     17.36823        -0.443274     -0.169340     -0.085075
Pb      15.24190      7.67787      4.32306        -0.035077     -0.128266     -0.411916
Pb       0.04926      7.55349      0.02412        -0.164745      0.318295     -0.520548
Pb       3.72408      7.73025      8.59933         0.211516     -0.656157      0.222017
Pb      15.34753      7.72655      8.63943        -0.443096     -0.068623     -0.502572
Pb       3.88894      7.69615     13.01487        -0.336192     -0.491762     -0.363980
Pb      15.26349      7.65861     13.00677         0.102281     -0.392732     -0.286994
Pb       3.93706     11.46830      4.40599        -0.354373      0.305710     -0.786845
Pb       3.68757     11.60400     17.43388         0.189025     -0.327085     -0.474191
Pb      15.25744     11.38645      4.42913        -0.105743     -0.007118     -0.525843
Pb       0.01567     11.48175      0.01730        -0.081421      0.120279     -0.560155
Pb       3.89555     11.44341      8.63303        -0.750468      0.669666      0.415793
Pb      15.35332     11.61630      8.68543         0.238932     -0.459378     -0.169674
Pb       3.77700     11.51270     13.07263        -0.034811      0.150239     -0.947084
Pb      15.30497     11.50308     12.96888        -0.185124      0.038550     -0.439862
Pb       7.60971      3.88962      4.25685         0.093471     -0.518632     -0.443828
Pb       7.58735      3.76784      0.06286         0.342712      0.338091     -0.303137
Pb       7.59407     15.24138      4.40770         0.685691      0.594925     -0.744947
Pb       7.80589     15.31295     17.43634        -0.497598     -0.130042      0.268084
Pb       7.66381      3.86851      8.63032         0.005711      0.052753     -0.479507
Pb       7.66095      0.11026      8.73630         0.211584     -0.818505     -0.619431
Pb       7.64896      3.76519     12.96163         0.023986      0.666983     -0.103872
Pb       7.62884     15.28970     13.09095         0.253007     -0.369141     -0.842396
Pb       7.72279      7.73113      4.39199        -0.145143     -0.143055     -0.534922
Pb       7.60860      7.71685     17.38043         0.397771     -0.799359     -0.057930
Pb       7.76167      7.53304      8.73410        -0.276971      0.341353     -0.787749
Pb       7.76562      7.72349     13.11884         0.146499     -0.550290     -0.912045
Pb       7.64080     11.49656      4.35688         0.193355     -0.049190     -0.916079
Pb       7.66951     11.41690     17.37485        -0.094255      0.397997     -0.348113
Pb       7.65863     11.57342      8.71185         0.132707      0.040533     -0.173476
Pb       7.56285     11.45603     13.00531         0.238460      0.515276     -0.496075
Pb      11.49146      3.92074      4.31687         0.238235     -0.788229     -0.585461
Pb      11.48990      3.83314     17.42706        -0.338586     -0.627469     -0.715750
Pb      11.56805     15.34047      4.44703        -0.269913      0.169786     -0.791611
Pb      11.51920      0.01554      0.06405         0.383352      0.115801     -0.790286
Pb      11.54521      3.69107      8.67929        -0.021873      0.205802     -0.516120
Pb      11.52483      0.10463      8.73495        -0.383385     -0.427212     -0.774195
Pb      11.50637      3.81504     12.95962        -0.055654     -0.199613     -0.195903
Pb      11.51621      0.00080     13.10448        -0.013785      0.010755     -0.485167
Pb      11.50310      7.61255      4.41402         0.420092      0.196564     -0.693161
Pb      11.49363      7.74695     17.35835        -0.303979     -0.339877     -0.492651
Pb      11.53162      7.67922      8.67864         0.052444      0.230697     -0.216916
Pb      11.56176      7.60126     13.15432        -0.462165      0.315528     -0.852380
Pb      11.46986     11.57121      4.27809         0.017051     -0.030119     -0.079707
Pb      11.51794     11.49673     17.41582        -0.086510      0.104720     -0.618285
Pb      11.52448     11.51687      8.63083        -0.165869     -0.009933     -0.334358
Pb      11.52518     11.56251     13.12118        -0.200725     -0.377647     -0.837026
Ti       1.86674      1.85565      2.29306         0.333686      0.950571      1.841423
Ti       1.92715      1.85659     15.26361        -0.032393      0.167839      2.446219
Ti       1.87158     13.32161      2.40604         0.560127      1.126281      1.499213
Ti       1.88159     13.36575     15.23311        -0.729683      0.190851      1.099100
Ti      13.35594      1.85344      2.27608        -0.133099      0.051147      0.767364
Ti      13.43728      1.86030     15.38451        -1.810557     -0.734642      0.596538
Ti      13.50504     13.36128      2.26641        -0.999407      0.965190      1.755424
Ti      13.43834     13.36197     15.39404        -0.168335      1.315794      3.303442
Ti       1.85722      1.91110      6.62219         0.401270      0.291259      0.775242
Ti       1.91436     13.41708      6.60717        -0.748828      0.100381      1.500998
Ti      13.40973      1.88887      6.65204         0.235687      0.126323     -0.281707
Ti      13.44541     13.39543      6.60040        -0.948409      0.453749      0.985256
Ti       1.92772      1.95677     11.04582        -0.942677     -1.926345      1.221137
Ti       1.84154     13.41573     11.05553         0.831172      0.995115     -0.462977
Ti      13.39544      1.90063     10.97673         0.334850     -0.086585      0.916587
Ti      13.36700     13.45101     10.86522         0.001543     -0.369746      2.615266
Ti       1.88692      5.74043      2.27779        -0.008858      0.032998      3.106965
Ti       1.86650      5.66708     15.35691         0.993282      0.694961      0.255363
Ti      13.42478      5.67509      2.21614         0.007595      0.433762      1.777069
Ti      13.40540      5.72729     15.38785        -0.319488     -0.331942      0.811379
Ti       1.89217      5.75476      6.57306        -0.333183     -0.980952      2.303908
Ti      13.41320      5.69728      6.69647         0.872739      0.017268     -0.262953
Ti       1.85396      5.70401     10.99656         0.294874      0.334628      1.508815
Ti      13.36291      5.76693     10.87451         0.151503      0.074161      0.317919
Ti       1.85186      9.59228      2.37256        -0.598081     -0.352410      1.467588
Ti       1.89759      9.50231     15.36394        -0.346721      0.902899      3.048856
Ti      13.28870      9.55071      2.22629         1.367654     -0.230586      2.813947
Ti      13.47291      9.58836     15.39795        -0.553689     -0.114283      1.935860
Ti       1.88853      9.57687      6.65272        -2.006097      0.662613      0.038023
Ti      13.35760      9.56456      6.58848         0.440303      0.044926      1.820000
Ti       1.82620      9.52650     11.05336         0.410127      0.884506     -0.301397
Ti      13.34488      9.58370     10.93443        -0.757813     -0.088669      0.887660
Ti       5.74747      1.82612      2.24020        -1.388965      1.255105     -0.295861
Ti       5.71859      1.90972     15.40427        -0.252165      0.633964     -0.035909
Ti       5.77474     13.42723      2.18200        -1.475854     -0.230124      0.141625
Ti       5.72700     13.46693     15.34065         0.236057     -0.408251      3.680623
Ti       5.78195      1.89798      6.61918        -1.283669      0.184593      0.038910
Ti       5.80667     13.39036      6.64491        -0.596789      0.851465      2.487470
Ti       5.77384      1.87211     11.01938        -1.099098      0.286460      0.378856
Ti       5.70631     13.44194     10.97859        -0.457196     -0.254629      1.133365
Ti       5.77772      5.81876      2.39340        -0.335276     -0.567346      0.363753
Ti       5.80155      5.72174     15.36266        -0.989253     -0.989357      0.189546
Ti       5.72152      5.73865      6.68037        -0.432118     -0.402460      0.312938
Ti       5.74343      5.74767     10.92910         0.052717     -0.377094      3.230299
Ti       5.63112      9.57214      2.24512         0.822638     -0.223008      1.085295
Ti       5.70341      9.58832     15.34165        -0.274010      0.473749      1.376334
Ti       5.68633      9.52530      6.67628         0.990652      0.097302      1.907739
Ti       5.69612      9.59627     11.00470        -0.289515     -0.305381      0.736849
Ti       9.53606      1.86297      2.32699         0.550434     -0.070772      1.257847
Ti       9.43699      1.78932     15.31678         2.579975      0.998994      1.046525
Ti       9.60287     13.38603      2.22774         0.134324      0.852385      1.162202
Ti       9.54992     13.39007     15.44037         1.050746     -0.200479      0.108724
Ti       9.50904      1.93958      6.58727         0.630217     -1.252212     -0.966690
Ti       9.59283     13.37918      6.62986         0.145851      1.533341      1.303202
Ti       9.52077      1.88233     10.97384         1.424918     -0.430769      1.044163
Ti       9.64954     13.34911     10.99325        -0.910642      1.118396      0.618973
Ti       9.60277      5.75748      2.27627        -0.416686     -0.901698     -0.912713
Ti       9.56644      5.59593     15.33966        -0.158969      0.638034      1.462032
Ti       9.70036      5.74195      6.53992        -1.966337     -0.099676      1.906173
Ti       9.56416      5.76140     10.92314        -0.654233     -0.180718      2.481717
Ti       9.50772      9.53536      2.31127        -0.009040      0.555997      0.566744
Ti       9.53066      9.55824     15.35106         1.423652     -0.542436      0.873826
Ti       9.50791      9.56784      6.69890         1.038516      0.112825     -0.476002
Ti       9.52675      9.61533     10.99839         0.973795     -0.467859      1.980435
O       1.80948      1.94370      0.57215         0.058155     -0.419182     -1.295624
O       1.95472      1.90039     13.54530        -0.109972      0.098996     -0.419500
O       1.86364     13.30345      0.69352        -0.061699      0.197500     -1.880967
O       1.85368     13.30735     13.50173        -0.090538      0.278817     -1.042469
O      13.18073      1.85529      0.50498         0.770886      0.318974      0.231386
O      13.41656      1.76624     13.63423        -0.203229      0.157874     -0.839284
O      13.47289     13.34115      0.55284         0.212686      0.041971     -0.870549
O      13.38497     13.50334     13.72361         0.064416     -0.377253     -3.021454
O       1.94844      1.92346      4.89351        -0.383774      0.012717     -0.746401
O       1.94177     13.51703      4.89108         0.089682     -0.374361     -1.317073
O      13.40172      1.85961      4.88982        -0.102550      0.205913      0.147394
O      13.33932     13.46228      4.85954         0.188002     -0.368330     -0.174439
O       1.77701      1.91600      9.34601         0.199410      0.033146     -2.029891
O       1.68844     13.39088      9.25923         0.330501      0.360530      0.384443
O      13.36582      1.92073      9.22738        -0.153656     -0.050607     -0.962476
O      13.44305     13.50801      9.17083        -0.270528     -0.167003     -1.838882
O       1.90659      5.73075      0.59397        -0.092585      0.195316     -2.248609
O       1.80485      5.64725     13.60636        -0.024943     -0.054804     -0.545733
O      13.43991      5.72243      0.48812        -0.095540     -0.022306     -1.238685
O      13.40973      5.66895     13.63709         0.014831      0.443620      0.072041
O       1.89262      5.73305      4.89021        -0.135658      0.030805     -2.161656
O      13.41017      5.72920      4.91544        -0.262348     -0.079702      0.283994
O       1.91401      5.66348      9.27827        -0.025513      0.327581     -0.638636
O      13.25712      5.90114      9.08519         0.439384     -0.532847      0.874114
O       1.93710      9.67072      0.67184        -0.375413     -0.021801     -1.966886
O       1.95588      9.58624     13.70806        -0.106588      0.098127     -3.849281
O      13.39350      9.54973      0.52826        -0.003115     -0.029482     -1.377799
O      13.39656      9.67124     13.69521         0.010694     -0.201569     -1.929846
O       1.80386      9.72210      4.90687         0.671323     -0.334509     -0.205521
O      13.36895      9.65155      4.87589        -0.017004     -0.140305     -1.182857
O       1.75013      9.59088      9.30425         0.633253     -0.520627     -0.299615
O      13.31170      9.35519      9.20794         0.132216      0.426321     -0.474723
O       5.45555      1.97134      0.48377         1.089564     -0.557978      0.200123
O       5.76605      1.84448     13.59153        -0.249567      0.362066     -0.040718
O       5.70649     13.48076      0.42408        -0.056119     -0.332868     -0.488832
O       5.82529     13.47203     13.66479        -0.211564     -0.197522     -1.785938
O       5.87508      1.86612      4.87972        -0.337307      0.010083     -0.991980
O       5.85647     13.36652      4.94068        -0.266197      0.121742     -1.609070
O       5.67008      1.89294      9.27631         0.338478     -0.265883     -0.515181
O       5.67738     13.49277      9.26137        -0.033132     -0.292467     -1.795174
O       5.79101      5.96458      0.67348        -0.228380     -0.363799     -1.295787
O       5.64018      5.54423     13.62336         0.531945      0.391426     -0.248295
O       5.60298      5.72666      4.96171         0.615796      0.035662     -1.714966
O       5.73882      5.66827      9.24037         0.082777      0.310161     -2.337641
O       5.73437      9.36395      0.50989        -0.049407      0.615860     -0.423600
O       5.65164      9.77491     13.61764         0.169021     -0.834419     -0.818726
O       5.66059      9.64527      4.98418         0.015730     -0.027705     -1.758592
O       5.62951      9.53828      9.27737        -0.022845      0.251390     -1.191406
O       9.54235      1.77299      0.58530         0.040651      0.454750     -0.715834
O       9.60950      1.87305     13.55979        -0.489037     -0.276455     -0.103091
O       9.53928     13.46684      0.47650         0.006532     -0.565991     -0.156854
O       9.51558     13.51256     13.68767         0.167687     -0.350956     -0.484032
O       9.55737      1.84249      4.79835        -0.432736      0.150527      0.796981
O       9.61573     13.56291      4.90339        -0.483451     -0.608611     -0.994849
O       9.63830      1.93525      9.23851        -0.548549     -0.154487     -1.037546
O       9.53733     13.32865      9.26307         0.126231     -0.125205     -0.889500
O       9.48954      5.66867      0.49804         0.290432      0.200690      0.103433
O       9.52840      5.61671     13.61173         0.106073      0.063550     -0.926377
O       9.60987      5.84067      4.80931         0.075756      0.028115     -0.604310
O       9.39109      5.74148      9.20108         0.242847     -0.026068     -0.790836
O       9.59762      9.61491      0.57056        -0.278202     -0.275860     -0.327192
O       9.53130      9.50455     13.62152        -0.036489      0.334400     -1.415338
O       9.59897      9.50625      4.92499        -0.559515      0.000112     -0.131468
O       9.66881      9.57876      9.30293        -0.568520      0.084043     -1.839480
O       3.77324      1.93645      2.63319         0.239484     -0.757674      0.664656
O       3.83022      1.90073     15.82012        -1.591827      0.062728     -0.585384
O       3.85367     13.50165      2.63091        -0.443098     -0.123421      0.680313
O       3.74009     13.35018     15.80926         1.326487      0.283428     -0.431003
O      15.27400      1.87191      2.74675         0.157147      0.590809     -0.219388
O      15.32693      1.82628     15.67433         1.142478     -0.061795      0.386150
O      15.33047     13.39065      2.76966         0.377504     -0.062785      0.059548
O       0.00052     13.47754     15.71827         0.171946     -0.025540      0.277461
O       3.82013      1.89093      6.90199        -0.231351     -0.087291      0.783040
O       3.72927     13.49693      7.03396         1.104061     -0.447332      0.003561
O      15.29505      1.95324      7.02166         0.143317      0.047948      0.167381
O      15.29213     13.39456      7.06502         0.091360      0.022038     -0.280457
O       3.78145      1.90121     11.39586         1.243489      0.280430      0.355041
O       3.77354     13.43423     11.40981         0.263015      0.036075      0.267539
O      15.21847      1.82585     11.47165         0.610861      0.056155      0.162577
O      15.23173     13.29926     11.39988         0.220877      0.655792      0.323150
O       3.82353      5.86900      2.79480        -0.142793      0.133894     -0.188490
O       3.76465      5.67779     15.60914         0.418685      0.089311      0.793496
O      15.32266      5.64141      2.65535         0.080254      0.365061      0.028599
O       0.02338      5.75735     15.80771        -1.285904      0.114325      0.267009
O       3.75759      5.63938      6.93094         0.430709      0.497579      1.011888
O      15.33994      5.61278      7.04564        -0.403541      0.452257      0.161099
O       3.75495      5.67236     11.47114         0.495380     -0.013136     -0.199601
O      15.27133      5.79118     11.39326         0.513916      0.132286     -0.113332
O       3.75772      9.36081      2.68582         1.220929      0.719841      0.297122
O       3.79456      9.54835     15.80783         0.752755      0.337346      0.036586
O      15.23951      9.62544      2.83859         0.243327      0.158137     -0.499795
O      15.32286      9.49475     15.76403         0.468091      0.230450      0.406856
O       3.73873      9.53409      7.12474         0.740250      0.399292     -0.141478
O      15.33519      9.54274      6.99886        -0.366223      0.125893      0.281360
O       3.82069      9.54666     11.42770        -0.801316     -0.015679      0.315252
O      15.26747      9.62417     11.32118         0.536445     -0.318313      0.801497
O       7.60361      1.96685      2.62457         0.662797     -0.105872      0.034452
O       7.59833      1.87658     15.82220         0.483713     -0.186861     -0.048857
O       7.54012     13.34029      2.60721         2.050528     -0.009465      0.568144
O       7.70100     13.39100     15.84356        -1.449463      0.069070     -0.162941
O       7.59825      1.78832      6.98697         1.238905      0.775218      0.792948
O       7.61911     13.36681      7.16008         0.231277     -0.030629     -0.283165
O       7.65729      1.73786     11.38417         0.269408      0.268576     -0.029186
O       7.57065     13.45734     11.33284         1.371280     -0.330131      0.625505
O       7.64526      5.66062      2.65683        -0.005251     -0.001920      0.788044
O       7.64158      5.68015     15.75207        -0.037769      0.118901      0.106289
O       7.58745      5.77044      6.99250         1.285290      0.113255      0.448343
O       7.65148      5.70894     11.52311        -0.003267      0.312048     -0.588733
O       7.61104      9.77427      2.72659         0.395969     -0.704399      0.026376
O       7.67914      9.58540     15.69507        -1.167834     -0.302319      0.388700
O       7.62939      9.59098      7.07911        -0.344538     -0.047228      0.042331
O       7.55142      9.60740     11.40554         1.248035     -0.204476      0.334262
O      11.45889      1.93413      2.78503         0.101382     -0.214987     -0.224554
O      11.47318      1.80878     15.71484        -0.962675      0.462205      0.209169
O      11.48050     13.44749      2.69673         0.063410     -0.330290     -0.250525
O      11.55086     13.39508     15.77607        -0.937254     -0.498127      0.235288
O      11.40816      1.90718      7.00748         0.472449     -0.214788      0.557018
O      11.44129     13.37239      7.04916         0.895154      0.416765      0.106899
O      11.48306      1.90774     11.28663        -0.059594      0.633357      0.699283
O      11.51829     13.27641     11.43994         0.032044      0.173411      0.025635
O      11.49532      5.83205      2.67284        -0.036418     -0.155843      0.061310
O      11.44335      5.68934     15.68996         0.894139     -0.124166      0.315127
O      11.44061      5.67455      7.05677         0.651581      0.390313     -0.218900
O      11.41636      5.77525     11.40554         0.811081     -0.323641     -0.172155
O      11.45989      9.52053      2.71324        -0.276088     -0.098945     -0.085727
O      11.51934      9.60426     15.79637        -0.017433     -0.072648      0.219883
O      11.45607      9.56852      6.97803         0.248652     -0.134463      0.466181
O      11.43696      9.57048     11.41827         0.385486     -0.268729      0.398765
O       1.92991      3.85174      2.72990        -0.047403     -0.107101      0.032615
O       1.77783      3.79494     15.89311         0.530681     -0.616172     -0.782140
O       1.77994      0.04529      2.83256         0.739355     -1.099656     -0.407850
O       1.92410     15.27571     15.76653         0.065186      1.007103     -0.293328
O      13.37153      3.82219      2.69237        -0.175647     -0.167975     -0.049376
O      13.41506      3.76504     15.79670         0.091834      0.979606      0.076971
O      13.39594     15.34721      2.72011         0.050603     -0.398471     -0.180854
O      13.32294     15.35925     15.90993         0.933638     -0.726206     -0.141690
O       1.88362      3.80160      7.17287         0.116746     -0.216267     -0.245606
O       1.74598     15.34969      7.05878         0.442422     -0.110444      0.026788
O      13.32144      3.81308      7.04695        -0.113734     -0.163862      0.293977
O      13.40107     15.35144      6.98675        -0.273706     -0.528172      0.399147
O       1.73955      3.78814     11.37350         0.231296      1.207378      0.354443
O       1.92621      0.03828     11.46251        -0.685606     -0.976797      0.275687
O      13.50359      3.92970     11.36820        -0.880519     -0.836694     -0.131600
O      13.25525     15.31342     11.32495         0.426104     -0.085090      0.090439
O       1.72438      7.73798      2.73624         0.229022     -1.418837      0.101032
O       1.93353      7.69750     15.77735        -0.326800     -1.493434      0.271779
O      13.44623      7.56954      2.76195        -0.109141      1.176037     -0.390324
O      13.37501      7.63826     15.87877         0.118599     -0.373643     -0.535052
O       1.80681      7.64885      7.02613         0.620177     -0.009531      0.167189
O      13.45847      7.66302      6.96618        -0.514381     -0.295092      0.175330
O       1.87253      7.64866     11.52046         0.009262      0.205396     -0.239257
O      13.40491      7.61152     11.45968        -0.256510      0.571650      0.260494
O       2.02364     11.49601      2.74448        -0.191100     -0.158661      0.576075
O       1.83564     11.54874     15.71237         0.104242     -0.968501      0.651034
O      13.45805     11.49325      2.74602        -0.804841     -0.391804     -0.352413
O      13.48726     11.49660     15.93509        -0.020176     -0.424198     -0.497578
O       1.79543     11.48742      7.13323         0.731187      0.214053     -0.343165
O      13.37402     11.47023      7.09964         0.181741      0.341989     -0.323418
O       1.94507     11.56028     11.33345        -0.361741     -1.733941      0.835917
O      13.30606     11.45045     11.27682         0.434242      0.217769      0.297298
O       5.67573      3.76474      2.62214         0.089405      1.120469      0.604845
O       5.66456      3.77700     15.87807         0.425052      1.078242     -0.064676
O       5.73692     15.32282      2.55634         0.165959     -0.102111      0.652649
O       5.69243      0.06954     15.68836        -0.121700     -2.297015      0.292143
O       5.76923      3.81602      7.11031        -0.110358     -0.311335      0.118465
O       5.71891      0.00528      7.03249         0.051642     -0.954822      0.164075
O       5.81511      3.80022     11.29257        -0.208366     -0.380045      0.530981
O       5.75737     15.29516     11.44378        -0.570811      1.114800      0.437028
O       5.95352      7.73532      2.78951        -0.721429     -0.023507      0.336022
O       5.73442      7.60252     15.83232         0.047314      0.539488     -0.719348
O       5.64173      7.65095      7.02128        -0.075183      0.376392      0.352628
O       5.75403      7.59598     11.37462        -0.318975      0.591569      0.320788
O       5.68464     11.47275      2.74071        -0.740545     -0.181508     -0.179924
O       5.78674     11.44092     15.79338        -0.290079      0.723042     -0.027112
O       5.65907     11.52175      7.04181        -0.185549     -0.598326      0.255409
O       5.70826     11.50888     11.43497        -0.167176     -0.098446     -0.014228
O       9.60529      3.88864      2.71016        -0.137380     -0.833904      0.170752
O       9.51023      3.71365     15.85697         0.038658      0.002758     -0.326650
O       9.52551     15.30132      2.64492        -0.429056     -0.036994      0.173959
O       9.57758     15.27195     15.91543        -0.334383      0.840589     -0.652325
O       9.54897      3.80807      6.92594        -0.518434      0.617046      0.283692
O       9.46477     15.33200      7.02360         0.235922      0.084796      0.488437
O       9.50905      3.80277     11.37074         0.121934     -0.123157     -0.063216
O       9.76318     15.24233     11.31534        -0.714942      1.065407      0.256786
O       9.38890      7.59847      2.66552         0.249115      1.774757      0.248206
O       9.60592      7.65351     15.63597        -0.155880     -0.489542      0.535225
O       9.61969      7.64592      7.12877        -0.629713     -0.153441     -0.299363
O       9.55478      7.66117     11.42708        -0.591814     -0.110199      0.081144
O       9.60735     11.50663      2.71757        -0.118127     -0.078351      0.089885
O       9.60328     11.43079     15.82699        -0.202889      0.939034      0.075209
O       9.63925     11.52026      7.00640        -0.826853     -1.124768      0.337839
O       9.57464     11.50152     11.41538        -0.524362     -0.666328      0.534681
