  # total energy = -7880.91668794 
CRSYTAL
PRIMVEC
    15.2000000000000000    0.0000000000000000    0.0000000000000000
     0.0000000000000000   15.2000000000000000    0.0000000000000000
     0.0000000000000000    0.0000000000000000    17.000000000000000
PRESSURE
7.68163 7.23083 5.01826 -0.018469 0.062423 -0.025274
PRIMCOORD
320 1
Pb       3.76795      3.83757      4.22334        -0.026863     -0.176729      0.076149
Pb       3.69377      3.80212      0.07878         0.060728     -0.377375     -0.272537
Pb       3.74677     15.17271      4.32598         0.370334      0.131911     -0.338253
Pb       3.84750     15.19632      0.03638         0.150660     -0.429806     -0.560845
Pb      15.08754      3.87907      4.22134         0.668298     -0.136969     -0.038317
Pb      15.14056      3.68563     16.99154         0.428814      0.668575     -0.469494
Pb       0.01019      0.02312      4.16737        -0.301291     -0.117911      0.262156
Pb       0.02731      0.02131     16.89944        -0.286909     -0.250986      0.278962
Pb       3.73589      3.66729      8.52105         0.257600      0.481900     -0.141870
Pb       3.73066     15.19861      8.42012         0.612869     -0.299474      0.476154
Pb      15.07247      3.82890      8.41552         0.473477     -0.667567      0.189277
Pb       0.08119     15.16403      8.65558        -0.612291      0.179767     -0.863850
Pb       3.76936      3.84090     12.81366         0.206851     -0.232566     -0.497581
Pb       3.81207     15.09065     12.63574        -0.094102      0.118126      0.530399
Pb       0.05732      3.54773     12.79046        -0.394800      1.027096     -0.067801
Pb       0.00214     15.12757     12.65787        -0.313061     -0.360821      0.195649
Pb       3.65179      7.65388      4.23854         0.582328     -0.265769     -0.337615
Pb       3.90642      7.55630      0.08972        -0.673688      0.510610      0.324034
Pb      15.19527      7.56751      4.16861         0.397692      0.465358      0.377039
Pb       0.19399      7.66327      0.01003        -0.602909     -0.208278      0.081658
Pb       3.69794      7.55629      8.49867         0.209594     -0.086477     -0.084700
Pb      15.16044      7.57142      8.52946         0.141467      0.208548     -0.892258
Pb       3.85149      7.64253     12.72795        -0.180500      0.056723     -0.214438
Pb      15.15714      7.57240     12.69346        -0.243125      0.405140      0.336357
Pb       3.71680     11.43388      4.23844         0.623048     -0.072687     -0.017374
Pb       3.77481     11.37146      0.01023         0.671955      0.248405     -0.373536
Pb      15.13789     11.40342      4.22295        -0.089460     -0.368892     -0.281245
Pb       0.05865     11.42292      0.00091        -0.491845     -0.113084     -0.228778
Pb       3.80374     11.32025      8.41164        -0.374326      0.713345      0.415692
Pb      15.06741     11.34375      8.50485         0.318755      0.256020     -0.495203
Pb       3.82284     11.33303     12.73188        -0.220026      0.126010     -0.443394
Pb       0.02227     11.41443     12.58071        -0.567546     -0.454390      0.787896
Pb       7.60444      3.75809      4.14846         0.142706      0.609773      0.436088
Pb       7.56780      3.77206     16.93788         0.262720      0.003267     -0.146878
Pb       7.60908      0.10682      4.23776        -0.292090     -0.454029     -0.359401
Pb       7.54930      0.01662      0.01276         0.016638     -0.361325      0.041364
Pb       7.59531      3.90623      8.38418        -0.242139     -0.602598      0.222517
Pb       7.54775     15.14726      8.36731         0.134865      0.085192      0.802666
Pb       7.50676      3.71927     12.68312         0.274068      0.249798      0.028094
Pb       7.67400      0.10136     12.66693        -0.421941     -0.803531      0.125184
Pb       7.53202      7.68004      4.43416        -0.071187     -0.178105     -1.145988
Pb       7.46128      7.52548     16.92530         1.036326      0.383743      0.144409
Pb       7.63765      7.54482      8.52141        -0.462924      0.401956     -0.373482
Pb       7.71789      7.50404     12.81176        -1.031580      0.359214     -0.245349
Pb       7.65257     11.42105      4.15196        -0.555881     -0.196361      0.029104
Pb       7.69286     11.33661     16.98593        -0.707734      0.019073     -0.167104
Pb       7.52666     11.34277      8.33658         0.616806      0.312084      0.617641
Pb       7.54072     11.23366     12.73286        -0.059037      0.571351      0.180434
Pb      11.46737      3.61335      4.22994        -0.422695      0.956256     -0.230925
Pb      11.45235      3.83390      0.01545        -0.060112      0.028476     -0.702155
Pb      11.34491      0.02506      4.23641         0.293892     -0.289856     -0.618298
Pb      11.36135     15.13653     16.89141         0.176266      0.308471      0.631863
Pb      11.29514      3.76727      8.47794         0.343003      0.024640     -0.216751
Pb      11.30672     15.14307      8.52380         0.172391      0.074148      0.171284
Pb      11.44314      3.81156     12.77504        -0.207262     -0.303982     -0.456027
Pb      11.35963     15.13482     12.85933         0.185819      0.090047     -0.815765
Pb      11.39438      7.67004      4.25739        -0.253320     -0.200025     -0.267228
Pb      11.30190      7.52304      0.01998         0.281354      0.122045     -0.389364
Pb      11.33987      7.58710      8.33565         0.548498      0.075951      0.797214
Pb      11.28227      7.44259     12.64968         1.212949      0.831570      0.323330
Pb      11.43503     11.49492      4.19761        -0.006419     -0.409263     -0.202926
Pb      11.30409     11.35049      0.10521         0.500973      0.053239     -0.469160
Pb      11.33357     11.39657      8.53509        -0.239833      0.044609     -0.319231
Pb      11.47159     11.38988     12.97941         0.141648     -0.454630     -0.827311
Ti       1.89286      1.86951      2.24519         0.355432      0.281601     -0.510929
Ti       1.89094      1.88735     14.94525         0.437743     -0.243791      1.747457
Ti       1.96268     13.32466      2.20864        -0.623826     -0.539874      0.910686
Ti       1.87812     13.29753     15.01921         1.081272     -0.503865     -0.680722
Ti      13.33860      1.95381      2.12584        -1.099900     -1.079988      0.610624
Ti      13.29277      1.85229     14.92822        -0.685644      0.500615      0.969780
Ti      13.36223     13.38092      2.25535        -1.171699     -0.604599      0.170960
Ti      13.26613     13.27620     15.07115         0.546902     -1.003709     -0.596866
Ti       1.88476      1.87268      6.47743        -0.751917      0.325732     -0.181643
Ti       1.83556     13.30001      6.48141        -0.268584     -0.516980      0.832371
Ti      13.26394      1.84122      6.44850         0.564777      0.446583      1.534655
Ti      13.21291     13.34683      6.49016         0.358781     -0.131554      0.699532
Ti       1.90851      1.89401     10.68635         0.346118     -0.493611     -0.306563
Ti       1.85344     13.23252     10.67003         0.420511     -0.371455      0.074211
Ti      13.28428      1.90997     10.75503        -1.052698     -1.276417     -0.345981
Ti      13.15588     13.25765     10.71838        -0.076759      0.034036      0.467372
Ti       1.91290      5.63174      2.26169         0.113966      1.131848      0.993211
Ti       1.95496      5.74410     15.03580        -1.321231     -1.441212     -0.307359
Ti      13.30728      5.79591      2.23893         0.032578     -0.968090     -0.130581
Ti      13.40314      5.69260     15.02984        -0.485422      0.452523      0.130988
Ti       1.91634      5.67096      6.52118        -0.629774      0.433982     -0.907744
Ti      13.32345      5.68362      6.43535        -0.520755      0.479291      0.479359
Ti       1.88372      5.64542     10.75330         0.543565      0.767435     -0.515912
Ti      13.35805      5.61262     10.70480        -1.179947      0.717327      0.469388
Ti       1.91821      9.56918      2.24743        -0.742216     -1.119302     -0.269722
Ti       1.88624      9.51083     14.99159         0.103236     -0.013073      0.527611
Ti      13.23016      9.47136      2.18183         0.913336      0.512648      0.832077
Ti      13.26818      9.46629     15.03990         0.284729      0.793391     -1.443966
Ti       1.89251      9.54990      6.43023        -1.399359     -0.583605      0.800213
Ti      13.27083      9.53985      6.48186         0.560305     -0.439115      1.561038
Ti       1.84180      9.41956     10.62835         1.002045      0.513136      1.224441
Ti      13.20105      9.46273     10.66614        -0.177707      0.341825      0.870830
Ti       5.70159      1.89634      2.21952        -0.108181     -0.622893      1.393834
Ti       5.65677      1.87320     14.95010         0.298902     -0.431535      1.058546
Ti       5.68774     13.30579      2.29684         0.761946     -0.553777     -0.632194
Ti       5.76276     13.30446     14.97035        -1.204210     -0.411550      0.921738
Ti       5.71254      1.92287      6.42911        -0.226432      0.121046      1.056820
Ti       5.65008     13.27124      6.43234        -0.407077      0.502829      0.647107
Ti       5.71815      1.90708     10.63555        -0.778285     -0.528956      0.552782
Ti       5.62694     13.30539     10.64742         1.053082     -0.469096     -0.394900
Ti       5.74002      5.64741      2.24210        -0.064703      1.285439      0.512271
Ti       5.60200      5.64338     15.08123         1.206454     -0.109787     -1.084449
Ti       5.61756      5.71732      6.45187         0.553592      0.048516      1.819845
Ti       5.63920      5.62689     10.75959         0.342648      1.045362      0.292033
Ti       5.70394      9.47394      2.23420        -0.065636      0.317018      1.133634
Ti       5.66907      9.45881     15.02180         0.777558      0.888353      0.280570
Ti       5.63425      9.49683      6.47513         0.969021     -0.628633      0.315022
Ti       5.74198      9.46036     10.61443        -1.201272     -0.222951      1.243508
Ti       9.55151      1.97149      2.11749        -0.417582     -0.754228      0.789594
Ti       9.52584      1.86590     14.99776        -0.275022      0.404849      0.192529
Ti       9.48103     13.33397      2.23895        -0.300690     -0.273081      0.808348
Ti       9.46521     13.25523     14.99442        -0.410881     -0.242328      0.239506
Ti       9.53195      1.84520      6.44110        -0.871492      0.800736      1.835901
Ti       9.44740     13.29769      6.40144         0.214853     -0.421960      0.491350
Ti       9.51948      1.90503     10.67451        -0.012131      0.118223      0.474840
Ti       9.41964     13.26874     10.87098        -0.396572      0.307808     -0.313712
Ti       9.55255      5.75667      2.24604        -0.288610     -0.042837      1.509494
Ti       9.49721      5.62989     14.92716         0.177981      0.389359      2.860453
Ti       9.45922      5.72500      6.43632         0.268313     -0.783321     -0.004607
Ti       9.41871      5.68537     10.71012         0.686327     -0.266570      0.630898
Ti       9.45716      9.47809      2.15371        -0.259320     -0.131673      1.360804
Ti       9.52045      9.41264     14.93840        -1.024558     -0.124484      0.834721
Ti       9.51018      9.49553      6.38081        -0.382316      0.665010      0.759941
Ti       9.45643      9.57866     10.70974         0.719062     -0.483944      0.126219
O       1.74566      1.86902      0.43373         0.352051     -0.000245      0.933351
O       1.95413      1.91576     13.20103        -0.217362     -0.050010     -0.868615
O       1.90281     13.28889      0.47106        -0.027294      0.141011     -0.684298
O       2.05266     13.19995     13.23195        -0.495402      0.240039     -0.014044
O      13.28596      1.89935      0.36950         0.111234     -0.010323     -0.290006
O      13.24282      1.88610     13.17889         0.053885      0.027140     -0.997008
O      13.39846     13.46230      0.51776        -0.347382     -0.635085     -0.919809
O      13.16973     13.13683     13.28304         0.191372      0.456558      0.082479
O       1.87621      1.91220      4.66494        -0.205728     -0.428497      0.559618
O       1.94747     13.27930      4.72522        -0.575241      0.294652     -0.904036
O      13.23127      1.89375      4.68338         0.127376     -0.059473     -0.403779
O      13.21375     13.29224      4.68909         0.135342      0.069899      0.213857
O       1.87150      1.88349      8.87683         0.069620     -0.154820      0.715633
O       1.92117     13.23637      8.90318        -0.246164      0.320410      0.092250
O      13.21089      1.86300      8.98935         0.308175      0.203613      0.082908
O      13.13820     13.25798      8.92863         0.089881      0.195540      0.538807
O       1.83894      5.68083      0.53108         0.134772     -0.222065     -1.059965
O       1.98591      5.78314     13.27247        -0.017803     -0.507830     -0.629504
O      13.38718      5.80802      0.47175        -0.251750     -0.157632     -0.491759
O      13.24275      5.69010     13.28901         0.203781     -0.229725     -1.157024
O       1.81041      5.71018      4.68944         0.286155     -0.480285      0.806625
O      13.41069      5.64140      4.64196        -0.376810      0.019122      0.525612
O       1.99211      5.76226      8.94933        -0.444085     -0.363256      0.388686
O      13.31756      5.60332      8.94802         0.155751      0.127678     -0.144368
O       2.02579      9.52094      0.44983        -0.846066     -0.161421      0.061748
O       1.85024      9.42691     13.23315         0.130001      0.212841      0.064143
O      13.13596      9.43009      0.44549         0.456058      0.018764     -0.825195
O      13.32744      9.62287     13.18728        -0.093635     -0.137833      0.930179
O       1.93167      9.56181      4.65110        -0.193409     -0.025327      0.087845
O      13.30860      9.58057      4.77541        -0.304620     -0.222436     -1.828132
O       1.88229      9.47347      8.89181         0.050468     -0.126522     -1.109440
O      13.19933      9.53348      8.86744         0.180765     -0.155609      0.706800
O       5.77411      1.77075      0.50718        -0.086441      0.534881     -1.284464
O       5.57379      1.82461     13.20411         0.297976      0.296368     -0.424014
O       5.69368     13.30392      0.52152        -0.120074     -0.006025     -0.152175
O       5.64350     13.42848     13.22269         0.126734     -0.371097     -0.487242
O       5.62391      1.93488      4.67278         0.074054     -0.174076     -0.357704
O       5.69947     13.26839      4.68447        -0.278140      0.309961     -0.253248
O       5.71825      1.95691      8.89685        -0.195832     -0.031752     -0.544119
O       5.62016     13.22984      8.83089         0.154463      0.073498      1.104975
O       5.64618      5.68439      0.44951         0.484967     -0.207206      0.112087
O       5.71724      5.60530     13.29314        -0.686559     -0.036160      0.132743
O       5.57939      5.65954      4.75404         0.275913     -0.033396     -2.031954
O       5.63214      5.71788      9.01593         0.171623     -0.090891     -0.618898
O       5.73709      9.52188      0.47711        -0.080297     -0.168587     -0.797663
O       5.82400      9.34669     13.27245        -0.545811      0.288569     -0.502789
O       5.69324      9.42432      4.73445        -0.146512      0.148992     -0.565647
O       5.75308      9.56816      8.85256        -0.276659     -0.284804     -0.045899
O       9.58680      1.91277      0.35203        -0.223280      0.124941      0.552663
O       9.61422      1.92452     13.22876        -0.461789     -0.184358     -0.334246
O       9.53436     13.31766      0.49874        -0.051653     -0.097057     -0.966602
O       9.40183     13.28282     13.22906         0.181621      0.269418      0.028303
O       9.53876      1.80673      4.71220         0.125529      0.186884     -1.153946
O       9.48861     13.27812      4.63738         0.139519      0.245338     -0.438286
O       9.38481      1.96812      8.91801         0.433717     -0.139909     -0.325412
O       9.33689     13.27222      9.12638         0.571678      0.023357     -1.169206
O       9.54810      5.69189      0.51037         0.053709     -0.088082     -1.082033
O       9.59475      5.75776     13.22170        -0.209734     -0.570981     -1.808388
O       9.38244      5.74006      4.69754         0.546525      0.122052     -0.214451
O       9.30429      5.78582      8.96723         0.431563     -0.401897     -0.957570
O       9.41831      9.49083      0.40034         0.394261     -0.110702     -0.742282
O       9.43346      9.40545     13.18608        -0.096256      0.005317     -0.821276
O       9.33325      9.40544      4.63217         0.833523      0.099104     -0.265025
O       9.49912      9.50298      8.93643        -0.216247      0.121607     -0.087867
O       3.80521      1.89785      2.46124        -0.792150     -0.273037      0.311898
O       3.80673      1.79813     15.43990        -0.555591      0.293097     -0.252005
O       3.82877     13.29588      2.66221        -1.573431      0.001412      0.015089
O       3.80590     13.34207     15.43518         0.241337     -0.026839     -0.053826
O      15.13799      1.82992      2.58808         0.680270      0.192283     -0.044924
O      15.15172      1.83258     15.24446         1.217667      0.280605      0.087232
O      15.19564     13.30143      2.58177         0.542394      0.451498      0.421213
O      15.17823     13.20503     15.29969         0.746983      0.329502      0.328680
O       3.75271      1.98976      6.74409         0.200411     -0.701609      0.378136
O       3.72819     13.13904      6.71848         0.516885      0.598591      0.320972
O      15.15386      1.77225      6.98313         0.236243      0.212455     -0.797386
O      15.08835     13.39911      7.01063         0.104368     -0.055009     -0.707503
O       3.72026      2.03601     10.98255         0.501555     -0.266303      0.093202
O       3.78097     13.09260     11.01006         0.381474      0.315061      0.352349
O      15.15390      1.75911     11.15120         1.080228     -0.114738      0.000081
O      15.11579     13.31577     11.12879         0.636934      0.407827     -0.455960
O       3.80329      5.67169      2.55243        -0.109793     -0.216440      0.225229
O       3.75942      5.66392     15.54868         0.769007     -0.601672     -0.264987
O       0.00304      5.71283      2.59147        -0.404699     -0.411470      0.247747
O       0.05150      5.53470     15.32898         0.261210      0.920431      0.323067
O       3.78163      5.75551      6.82846        -0.952330     -0.349394      0.215525
O      15.19746      5.72648      6.90577        -0.413355     -0.469495     -0.053126
O       3.80828      5.56415     11.13868        -1.195948      0.056698      0.303098
O       0.00656      5.78606     11.15764        -0.013669     -0.329946     -0.356222
O       3.74788      9.47465      2.52812         0.563245      0.486218      0.576351
O       3.80039      9.50698     15.41849        -0.079129     -0.192833     -0.389688
O      15.19194      9.45834      2.61876        -0.310305     -0.143637     -0.304054
O      15.16775      9.51133     15.41895         1.698992      0.032371      0.236628
O       3.76232      9.51478      6.77240        -0.501433      0.244989      0.175153
O      15.17582      9.42075      6.77847         0.189061      0.543985      0.497344
O       3.73339      9.50624     11.11746         1.236512      0.181751     -0.220319
O      15.19893      9.44700     10.92863        -1.008012     -0.235307      0.338277
O       7.60132      1.99063      2.61437         0.420869     -0.333458     -0.246398
O       7.60669      1.96137     15.38187        -0.416882     -0.188445     -0.315887
O       7.53207     13.22607      2.58922         1.579322      0.151746      0.234245
O       7.62139     13.28085     15.54877         0.188822     -0.043302     -0.762368
O       7.56352      1.80009      6.70303         0.342883      0.360490      0.084106
O       7.56472     13.39803      6.70938        -0.018416     -0.402467      0.318748
O       7.58094      1.83810     11.04772        -0.424617      0.019270      0.337212
O       7.52929     13.41295     11.14814        -0.896767      0.230721      0.158042
O       7.66409      5.65185      2.65060        -1.586568      0.149726     -0.359066
O       7.57962      5.64143     15.25252         0.111108     -0.164870      0.513353
O       7.55258      5.72587      6.83263         0.118329      0.403834      0.035695
O       7.55062      5.64797     11.11276         0.338013      0.153647      0.365482
O       7.56170      9.41081      2.61058         0.072490      0.202491     -0.044935
O       7.58897      9.38716     15.33825        -0.208336      0.372141      0.357398
O       7.65380      9.53197      6.74921        -0.918018     -0.463587      0.324746
O       7.55833      9.40942     11.00820         0.376996     -0.397914      0.273502
O      11.41085      1.80987      2.62502        -0.913362      0.542513     -0.319708
O      11.39372      1.91992     15.34077         0.353128     -0.483658      0.094093
O      11.37685     13.16155      2.56591         0.015163      0.635946      0.045228
O      11.38875     13.24504     15.46838        -0.679448      0.145688     -0.278143
O      11.36077      1.91359      6.89554         0.241472      0.147400     -0.233427
O      11.31586     13.29589      6.91165         0.504451      0.254349     -0.261191
O      11.37962      2.01002     11.04000         0.118791      0.002384      0.221878
O      11.32105     13.08452     11.23666         0.359020      0.747525     -0.294235
O      11.46258      5.76815      2.67151        -1.216728     -0.246783     -0.058891
O      11.51438      5.79490     15.44682        -1.420551     -0.635359     -0.161794
O      11.37153      5.70926      6.87174         0.422169     -0.495143     -0.362587
O      11.37104      5.56492     10.99708         0.303538      0.035038      0.339736
O      11.37739      9.46534      2.55237        -0.579512      0.084627      0.386696
O      11.36089      9.44926     15.27380         0.279566     -0.020502      0.435193
O      11.37242      9.49180      6.78756        -0.200340      0.067582      0.027962
O      11.33394      9.71034     11.04540         0.587636     -0.637569      0.022023
O       1.89188      3.75169      2.63096        -0.317290     -0.295321     -0.180859
O       1.86487      3.75203     15.43002         0.554060     -0.506504     -0.276700
O       1.91449     15.17678      2.74307        -0.111378      0.331515     -0.544879
O       1.82738     15.14798     15.38988         0.244332      0.928786     -0.332230
O      13.13686      3.78818      2.51573         0.787088      0.182338      0.116221
O      13.33478      3.72904     15.28040        -0.297699      0.668861      0.520270
O      13.16058      0.02405      2.55300         0.577598     -0.034997      0.484289
O      13.34540     15.16510     15.31040        -0.519502      0.207291      0.053223
O       1.86215      3.75673      6.87048        -0.290877      0.420739     -0.158746
O       1.94962     15.13140      6.94219        -0.286578      1.230805     -0.582272
O      13.32647      3.77372      6.81228        -0.178525      0.129100     -0.072189
O      13.16010      0.05755      6.92183        -0.037977     -1.262131     -0.403844
O       1.78438      3.76983     11.02747        -0.340883      0.002152      0.432935
O       2.03121     15.12164     11.03173        -0.745608      0.721696     -0.009555
O      13.42436      3.74548     11.08445         0.048488      0.803448      0.363205
O      13.15681     15.14179     11.22840         0.080343      0.079249     -0.266550
O       1.91073      7.58602      2.66182        -0.295624     -0.027612     -0.371594
O       2.05077      7.49909     15.47422        -0.999003      2.326118     -0.052719
O      13.23591      7.59522      2.66864         0.421887      0.671963      0.134502
O      13.41859      7.67365     15.20212         0.093705     -1.624947      0.623921
O       1.78750      7.58272      6.86085         0.799174      0.343314     -0.085902
O      13.27323      7.56873      6.86063        -0.104455     -0.187352     -0.182127
O       1.99967      7.55397     11.10364        -0.322226     -0.066193     -0.170858
O      13.20425      7.56724     11.15141         0.091580      0.350506     -0.625224
O       1.76008     11.42269      2.56414         0.771594      0.587198      0.139956
O       1.98285     11.38028     15.38214        -0.413386     -0.199346      0.069342
O      13.30336     11.32058      2.61743         0.001186      1.067799     -0.087108
O      13.35252     11.42664     15.50578        -0.792261     -0.665381      0.264764
O       1.74654     11.45570      6.85345         0.025135     -1.542591     -0.100108
O      13.26012     11.41749      6.88387         0.023651      0.513220     -0.187661
O       1.84531     11.38676     10.97295        -0.216957     -0.734572      0.412406
O      13.32856     11.40715     11.13511         0.223840     -0.743946     -0.628641
O       5.60386      3.80569      2.62504         0.556703     -0.145787     -0.121350
O       5.63808      3.76335     15.43010        -0.143493     -0.370228     -0.004021
O       5.74627     15.16493      2.61345        -0.218964      1.319998      0.387727
O       5.74830     15.17614     15.45125         0.102623      0.623873     -0.259625
O       5.63853      3.83352      6.94019         0.264088     -0.574100     -0.557797
O       5.61698     15.19487      6.97631        -0.454880      0.210832     -1.152193
O       5.64249      3.73880     11.13229         0.573507     -0.029979      0.287437
O       5.49066      0.01173     11.02711         0.403040     -0.224677     -0.443032
O       5.56991      7.59443      2.69288         0.552177     -0.672051     -0.452864
O       5.63731      7.55477     15.44743        -0.070452     -0.282819     -0.168756
O       5.58341      7.62710      6.92340         0.722867     -0.136282     -0.303220
O       5.63663      7.52858     11.19206         0.119824      0.665720     -0.658266
O       5.66777     11.36907      2.73655        -0.139248     -0.478495     -0.393962
O       5.72880     11.40288     15.28732        -0.037528     -0.258363      0.052178
O       5.66456     11.40527      6.84293         0.279198     -0.363651     -0.297850
O       5.83891     11.33336     11.09315        -0.674470      0.281921     -0.116158
O       9.47032      3.81493      2.59267         0.849559     -0.761087     -0.070867
O       9.54456      3.77245     15.36346         0.128768      0.847260      0.011044
O       9.36263      0.00853      2.64734         0.664008      0.447155     -0.482016
O       9.45650     15.16725     15.33994         0.343494      0.070052     -0.110721
O       9.47967      3.79536      6.78846        -0.237692     -0.042500      0.118031
O       9.48425     15.17725      6.96431         0.186349      0.140650     -0.631733
O       9.38516      3.77498     11.11211         0.078934      0.400185      0.041985
O       9.54078      0.02747     11.12477         0.307726      0.053775      0.364679
O       9.46630      7.63017      2.56862         0.351875     -0.630370      0.146298
O       9.38229      7.53137     15.34702         0.682631     -0.382220      0.072568
O       9.58180      7.59852      6.85044        -0.958386      0.268607     -0.345709
O       9.54998      7.59648     11.10939        -0.451601     -0.180054     -0.260186
O       9.42451     11.35463      2.48133         0.107379      0.344606      0.306610
O       9.51042     11.32685     15.26358        -0.197422      0.571909      0.511363
O       9.50999     11.45495      6.78594        -0.247550     -0.751575     -0.037185
O       9.31586     11.42008     11.16592        -0.237334     -1.193179      0.001229
