  # total energy = -7873.64509871 
CRSYTAL
PRIMVEC
    15.2000000000000000    0.0000000000000000    0.0000000000000000
     0.0000000000000000   15.2000000000000000    0.0000000000000000
     0.0000000000000000    0.0000000000000000    17.000000000000000
PRESSURE
8.17335 8.8076 3.4839 -0.20738 -0.187324 -0.081591
PRIMCOORD
320 1
Pb       3.61408      3.86694      4.33017         0.161097     -0.002392     -0.227040
Pb       4.04429      3.93958      0.02325        -1.020116     -0.557485     -0.325757
Pb       3.58403      0.26219      4.39892         0.547949     -0.556704     -0.348981
Pb       3.91928     15.14467     16.96246        -0.075602      0.515746      0.334595
Pb       0.03165      3.91625      4.19180        -0.084693     -0.058151      0.134914
Pb       0.20246      3.84063     16.92095        -0.026865     -0.205126      0.014545
Pb      15.13449      0.33850      4.55943         0.410549     -0.825841     -1.025973
Pb       0.07935     15.04313     16.92717         0.090054      1.102710     -0.090896
Pb       3.99791      3.88036      8.39741        -0.294197     -0.613046     -0.006051
Pb       3.86073     14.92802      8.79148        -0.381343      0.489832     -1.199306
Pb       0.16182      3.65171      8.72597        -0.936042      0.005454     -0.394711
Pb      14.85001     15.08214      8.55063         0.911272      0.299899      0.719726
Pb       3.84513      3.71345     12.55816         0.037958      0.108187      0.006020
Pb       3.82909      0.00686     12.83813         0.008400      0.024172     -0.254086
Pb      15.14512      3.83705     12.70217         0.661139     -0.422623     -0.252216
Pb       0.09033     15.18676     12.91129         0.143387     -0.476141     -0.411778
Pb       3.66685      7.71272      4.37091         0.018305     -0.120155     -0.363594
Pb       3.82441      7.64899     16.99293        -0.250053      0.033633      0.040024
Pb      15.02964      7.90043      4.34744         0.860148     -0.661899     -0.255502
Pb      15.14699      7.51580     16.81698         0.643936      0.175808      0.057757
Pb       3.83781      7.58723      8.31569         0.046789      0.001557      0.072525
Pb      15.02784      7.47444      8.53569         0.163033      0.543497     -0.823297
Pb       3.71598      7.40234     12.57618         0.336390      0.473646      0.697072
Pb      15.17557      7.34086     12.74189        -0.250705      0.715722     -0.204129
Pb       3.45763     11.51239      4.39748         0.739605      0.207630     -0.499021
Pb       4.10849     11.45848      0.35494        -0.613522     -0.253462     -0.729374
Pb      15.04413     11.54977      4.23005         0.870907     -0.248526      0.020511
Pb       0.15905     11.39512     16.89959        -0.106691     -0.499016     -0.201852
Pb       3.66962     11.41050      8.56921         0.010697     -0.177366     -0.406620
Pb      15.02447     11.40525      8.60884         0.652311     -0.385053     -0.462795
Pb       3.68570     11.28080     12.69536         0.210742      0.132115      0.353859
Pb      15.15520     10.99707     12.98603        -0.211902      0.166256     -0.681263
Pb       7.55211      3.80720      4.25110         0.123184     -0.093007     -0.233875
Pb       7.56772      3.78955      0.12150        -0.062947     -0.385155     -0.713222
Pb       7.57311     15.10579      4.24690        -0.364722      0.329146     -0.521104
Pb       7.66733     15.07470     16.97932        -0.055706      0.720683      0.489271
Pb       7.71486      3.67384      8.34891        -0.194104      0.385738     -0.138536
Pb       7.64378     15.15113      8.46077        -0.217588     -0.006169     -0.112710
Pb       7.64457      3.84381     12.78518        -0.335437     -0.495806     -0.290089
Pb       7.56554     15.08461     12.86281         0.229307      0.919521     -0.686434
Pb       7.78306      7.56714      4.10412        -0.576341      0.062389      0.621663
Pb       7.59404      7.73834      0.14819        -0.032522     -0.084561     -0.804828
Pb       7.50800      7.65392      8.27254         0.259789     -0.372067      0.117441
Pb       7.39423      7.54999     12.62584         0.938006      0.189518     -0.019705
Pb       7.46221     11.36465      4.28271         0.225140      0.129550      0.154265
Pb       7.56443     11.48541      0.02653         0.018704     -0.382512     -0.172988
Pb       7.54557     11.58384      8.60321         0.124147     -0.661834     -0.417964
Pb       7.51204     11.30980     12.71549         0.084068     -0.266455     -0.316489
Pb      11.41988      3.91049      4.07098        -0.393012     -0.625251      0.165911
Pb      11.35268      3.59565     16.98829         0.025859      0.373376     -0.291369
Pb      11.52731     15.15728      4.10084        -0.300908      0.303014      0.400984
Pb      11.49009     15.14403     16.94443        -0.268020      0.100665     -0.118654
Pb      11.46657      3.81025      8.45961        -0.373897     -0.409336     -0.106780
Pb      11.28255      0.03883      8.40778         0.214991     -0.343218      0.392540
Pb      11.31404      3.67570     12.81980        -0.419584     -0.012507     -0.141602
Pb      11.42125     15.15232     12.68907        -0.618655     -0.352244      0.370908
Pb      11.50524      7.67376      4.07026        -0.391668     -0.378131     -0.092462
Pb      11.40399      7.54410     16.89815        -0.770750     -0.168547      0.518293
Pb      11.25653      7.49238      8.68754         0.319769     -0.016997     -0.909191
Pb      11.33749      7.53125     12.94687         0.297634      0.383672     -0.649187
Pb      11.37992     11.27171      4.12933         0.162956      1.005237      0.350973
Pb      11.47864     11.49071     16.73579        -0.296608      0.007093      0.817560
Pb      11.25665     11.46742      8.52859         0.502547      0.218242     -0.485971
Pb      11.27140     11.25163     12.53425         0.804672     -0.240140      0.635818
Ti       1.80007      1.96383      2.20893         1.127855     -0.793234     -0.986225
Ti       1.86879      1.91535     14.92112         0.877576      0.510578      2.130375
Ti       1.96363     13.35085      2.02270         0.564099      0.301775      1.460204
Ti       2.03164     13.20970     14.93989         0.293378      0.281586     -0.548301
Ti      13.29365      1.95803      2.11257         0.059736     -0.048309      1.161965
Ti      13.30124      1.91643     14.86289        -0.037504     -1.340184      0.930928
Ti      13.51547     13.43054      2.21576        -1.162089     -0.631708      0.038118
Ti      13.40671     13.27841     14.90581        -0.972391      0.408236     -1.348607
Ti       1.86027      1.92231      6.69680         0.896294     -1.018041     -0.814373
Ti       1.85200     13.37300      6.59882         1.377044     -0.743068      0.621835
Ti      13.24177      1.89829      6.52004        -0.329813      0.120101      0.006527
Ti      13.37196     13.26976      6.41286        -1.209950     -0.945179      0.196535
Ti       1.88623      1.77140     10.64134         0.447478      1.094455     -0.013526
Ti       1.92491     13.22754     10.86183        -0.783250     -1.054197     -0.201321
Ti      13.25121      1.76346     10.84975         0.007983      0.675339     -1.919124
Ti      13.38299     13.17437     10.91257         0.253101      0.120832     -0.911031
Ti       1.84366      5.80841      2.29978         0.120191      0.530384     -0.400160
Ti       1.98696      5.71576     14.90806         0.214780     -0.708246      0.346094
Ti      13.29354      5.71972      2.04873         0.029403      0.015744     -0.048784
Ti      13.16896      5.58201     14.99230         0.461605     -0.124689      0.848763
Ti       1.79889      5.64679      6.61849         0.192002      0.632294     -1.467396
Ti      13.27869      5.63692      6.29082        -0.300463      0.440636      1.180850
Ti       1.93225      5.64103     10.55540        -0.169520     -0.849973      0.415857
Ti      13.18887      5.54824     10.78967         0.657121      0.469051     -0.800396
Ti       1.78631      9.58985      2.16121         0.995493     -1.779880     -1.027813
Ti       1.96508      9.42588     14.95843        -0.088133      0.262222      0.087944
Ti      13.27596      9.60369      2.09086        -0.567368     -0.406516     -1.055063
Ti      13.16666      9.43330     15.10580         1.582981      0.054069     -2.798982
Ti       1.86331      9.52355      6.59516        -2.024656      0.239837      0.782751
Ti      13.19088      9.44870      6.53516         0.976677      0.352409      1.165665
Ti       1.90530      9.29581     10.73986        -0.554812      1.718111     -0.657782
Ti      13.31815      9.35148     10.73959        -0.029767      0.059696      0.901839
Ti       5.66030      1.94248      2.25475        -0.404640     -1.166235     -0.045360
Ti       5.67857      1.89921     15.06703         0.276901      0.174749      1.291549
Ti       5.78140     13.33744      2.34634        -1.883674      0.732608      0.370996
Ti       5.76020     13.28805     14.89483        -0.815655     -0.172182      0.047651
Ti       5.66654      1.90201      6.37766        -0.768203     -0.900760      0.046181
Ti       5.69819     13.35006      6.49084        -0.737625     -0.468808     -0.986086
Ti       5.72271      1.83974     10.57089         0.188626      0.546488      0.378721
Ti       5.69635     13.25872     10.77406         0.296467      0.181739     -0.302578
Ti       5.59429      5.78087      2.31018        -0.814447     -0.267657      2.126345
Ti       5.75223      5.76364     14.97024        -0.483460     -0.744763     -0.269008
Ti       5.72581      5.66597      6.33596        -0.108718      0.094381      1.571869
Ti       5.72850      5.66222     10.60140         0.315881     -0.257740     -0.069164
Ti       5.62476      9.53732      2.38066        -0.546911     -0.232483      0.967299
Ti       5.67872      9.47349     14.87644        -0.073987      0.349335     -0.021753
Ti       5.71940      9.61152      6.53079         0.049492     -0.107934     -0.315957
Ti       5.66372      9.51247     10.64237         0.651320     -0.645029     -0.583889
Ti       9.48026      1.84724      2.23143         0.082952     -0.544303     -0.747914
Ti       9.45337      1.84140     15.07872         0.148995     -0.047966     -0.034753
Ti       9.64964     13.34704      2.27747        -0.777777     -0.284738      0.328992
Ti       9.47536     13.24765     14.89288         0.874961      0.524104     -0.325322
Ti       9.43146      1.72548      6.26839         0.608888      1.839021      1.367637
Ti       9.50884     13.20228      6.40470        -0.131373     -0.167237     -0.405850
Ti       9.40640      1.81513     10.73199         0.498046      0.129739      0.099349
Ti       9.48300     13.21196     10.83998         0.047449      0.957702     -0.761822
Ti       9.43485      5.72085      2.07570         0.387336     -0.018646      0.196429
Ti       9.38170      5.70221     15.00747        -0.334726      0.058713      0.561615
Ti       9.56195      5.66100      6.41509        -0.838747     -0.376050     -0.967552
Ti       9.50907      5.65421     10.79817        -1.004426     -0.472615      0.090063
Ti       9.44688      9.67236      2.19666         0.055077     -1.405578      0.561839
Ti       9.36864      9.56593     14.91715        -0.175813     -1.827700     -0.309091
Ti       9.58312      9.45920      6.37713        -0.997568      0.023881      0.556768
Ti       9.47724      9.38252     10.58076        -1.122581     -0.158699      0.853370
O       1.80228      1.85229      0.42732        -0.005620      0.826222     -0.440997
O       1.74406      2.03159     13.19755         0.438810     -0.196806     -1.583446
O       2.03208     13.21679      0.23170        -0.614836     -0.360786     -1.110228
O       1.96635     13.19375     13.13837         0.017982      0.390950      0.061222
O      13.27262      1.93097      0.39996         0.065612      0.013122     -1.803360
O      13.38968      1.84848     13.04814        -0.099843     -0.280175     -0.282685
O      13.48394     13.28340      0.44228        -0.095354     -0.015011     -1.048303
O      13.35366     13.41976     13.08428         0.189361     -0.164535      0.186292
O       1.69459      1.83253      4.71495         0.198012      0.208103      0.563811
O       1.74305     13.21139      4.84070         0.468479      0.027436     -0.723325
O      13.34545      1.79140      4.72369        -0.085162      0.131353     -0.121107
O      13.37265     13.23649      4.61419        -0.015901      0.399529      0.297734
O       2.01544      1.89785      8.85359        -0.364744     -0.126692      0.267078
O       1.96287     13.22856      9.06648         0.248234      0.437076     -0.292805
O      13.17422      1.91562      8.99360         0.168723     -0.025960     -0.264625
O      13.31710     13.20023      9.07439         0.111022     -0.177945     -0.542447
O       2.08689      5.83635      0.53239        -0.612379     -0.134432     -0.823818
O       2.06114      5.63476     13.13838        -0.241170      0.170111     -0.650226
O      13.27968      5.61814      0.23111         0.120307      0.435487      0.257428
O      13.22014      5.51512     13.24456        -0.147264      0.387506     -1.386256
O       1.78908      5.59264      4.79922        -0.344885     -0.098267     -0.445790
O      13.26708      5.67360      4.53176        -0.246025      0.007645     -0.823179
O       1.97882      5.60650      8.76761        -0.348164      0.403796     -0.088413
O      13.07187      5.54334      8.98552         0.463595      0.305282      0.247952
O       1.87395      9.57385      0.32320        -0.314550     -0.144616      0.375974
O       1.94272      9.26082     13.17711        -0.007648      0.304813     -0.748986
O      13.16744      9.50346      0.28634         0.441216      0.034617     -0.669793
O      13.21783      9.44273     13.18025        -0.152458     -0.327442      0.767158
O       1.72176      9.51634      4.81932         0.146912      0.379627     -0.976127
O      13.09534      9.43073      4.76256         0.259870      0.619731     -2.130362
O       1.75463      9.33826      8.98250        -0.084151     -0.211541     -0.775825
O      13.24694      9.35312      8.94976         0.292055     -0.039528      0.245270
O       5.65588      1.99668      0.44843        -0.404191     -0.432250     -0.540071
O       5.73284      1.76413     13.36507         0.018685     -0.016189     -2.477312
O       5.56483     13.21824      0.53364         0.621369      0.307833     -1.005469
O       5.82220     13.31567     13.09111        -0.313574      0.352836      0.095283
O       5.65840      1.87646      4.59343         0.159689     -0.034389     -0.723952
O       5.63239     13.37056      4.66530         0.299361     -0.461904      0.193022
O       5.68721      1.84466      8.80491         0.131172     -0.069222     -0.269518
O       5.75280     13.21234      8.90649        -0.455584      0.380689      0.537743
O       5.55545      5.83174      0.58415         0.120535     -0.042419     -2.101144
O       5.71301      5.79479     13.19597         0.167556     -0.339484     -1.140109
O       5.61654      5.43606      4.64315         0.399144      0.308800     -2.018889
O       5.62074      5.63201      8.85520         0.313443      0.078003     -1.196130
O       5.73109      9.48384      0.62527         0.038777      0.161890     -1.228966
O       5.73965      9.43788     13.08480        -0.062354      0.022606     -0.175135
O       5.52015      9.55057      4.79826        -0.007897      0.417668     -1.409882
O       5.68378      9.56543      8.85561         0.267198     -0.136594     -0.660867
O       9.61717      1.55269      0.40755        -0.149858      1.025578      0.246276
O       9.51571      1.86734     13.31650        -0.259456     -0.239570     -1.349722
O       9.56097     13.44427      0.51634        -0.020639     -0.774829     -0.912286
O       9.40876     13.14291     13.09808         0.094101      0.311797     -0.232281
O       9.45851      1.88979      4.54989         0.005428      0.034264     -1.115434
O       9.53529     13.12531      4.64905        -0.297954      0.502576     -0.555542
O       9.44561      1.80034      8.94009        -0.286508     -0.161121     -0.114055
O       9.39491     13.32615      9.04658         0.249947     -0.070421     -1.008060
O       9.36148      5.79415      0.30702        -0.067385     -0.312989      0.202887
O       9.30833      5.61337     13.23673         0.433460     -0.167935     -1.331667
O       9.49994      5.52221      4.59314         0.108980      0.487874     -0.049308
O       9.59568      5.73126      9.04445        -0.170444     -0.327593     -1.180432
O       9.33317      9.55836      0.46403         0.061822      0.197407     -1.446001
O       9.27462      9.60228     13.13691         0.767176     -0.000659     -0.173883
O       9.65681      9.51783      4.58636        -0.008417     -0.267740     -0.537584
O       9.44056      9.23218      8.80962         0.147104      0.469129      0.264287
O       3.69045      1.83631      2.71708         0.091644      0.507787     -0.333721
O       3.77980      1.88314     15.30711        -0.477628     -0.159511     -0.013910
O       3.73979     13.12872      2.51913        -0.591864      0.065673      0.333516
O       3.91272     13.34228     15.22005        -1.354993      0.242485      0.014883
O      15.16203      1.83407      2.50284        -0.304226      0.174172      0.673186
O      15.15411      2.11807     15.25784         0.504593     -0.552227      0.061904
O       0.11815     13.35604      2.58614        -0.842256     -0.160937     -0.026800
O       0.03929     13.28982     15.16596         0.428987     -0.400318      0.579541
O       3.73602      1.91014      6.64125         0.195166     -0.037511      0.013452
O       3.77024     13.17621      6.95353         0.073039      0.856931     -0.106566
O      15.13557      1.90909      6.98898        -0.445710     -0.163621     -0.278562
O       0.04088     13.30797      6.89659        -2.520264     -0.160058      0.303186
O       3.85280      1.78996     11.01721        -0.612152     -0.269300      0.521480
O       3.77768     13.40266     11.24878         1.461433      0.022434     -0.437336
O       0.05848      2.09452     10.88733        -0.459851     -0.459393      0.344852
O       0.12045     13.02096     11.04790        -1.197314      0.507805      0.585937
O       3.64982      5.73569      2.77289         1.132138     -0.223345      0.089131
O       3.88976      5.80317     15.24786        -0.553196     -0.238909      0.637148
O      15.11198      5.62104      2.41513        -0.270640      0.130488      0.165960
O       0.05159      5.62836     15.07422        -0.975828      0.376076      0.881487
O       3.82020      5.69524      6.66921        -0.819657     -0.136205      0.656294
O      15.07616      5.46560      6.81872        -0.116678      0.250953      0.386979
O       3.82591      5.69641     10.94571         0.044389      0.277797      0.252386
O       0.00116      5.61498     10.91018        -0.332796     -0.316595      0.367251
O       3.68333      9.37263      2.55697        -0.241886      1.012339      0.155516
O       3.83907      9.40443     15.16507         0.123272      0.169611      0.520340
O      15.07160      9.49702      2.37007         0.854929      0.017379      0.680923
O      15.12471      9.40097     15.17253         0.599098     -0.089543      0.678626
O       3.68094      9.55027      6.86576         0.916109     -0.612161      0.179102
O      15.02784      9.56070      6.91892         0.951093     -0.577579      0.101677
O       3.82541      9.18863     10.84314         0.348104      0.062539      0.718488
O       0.02254      9.30409     11.24114        -0.640525      0.466050     -0.351154
O       7.57448      1.78223      2.40050         0.084237      0.340586      0.583231
O       7.59026      1.79970     15.44722         0.564534      0.397595      0.264318
O       7.57197     13.26431      2.54941         0.992143      0.259264      0.362091
O       7.59469     13.21266     15.33275         0.609532      0.195350      0.112032
O       7.54775      1.91772      6.62410         0.842764     -0.309175      0.552446
O       7.60855     13.16795      6.84491        -0.604054      0.481450     -0.059194
O       7.58171      1.95199     11.11706        -0.047432     -0.148561     -0.007274
O       7.57318     13.17910     10.99784        -0.100307     -0.377999      0.529751
O       7.44478      5.65944      2.57831         1.601438      0.189565     -0.064695
O       7.56652      5.62365     15.43309         0.050457     -0.117635      0.367820
O       7.59301      5.59754      6.72014         0.277662      0.437209      0.284061
O       7.55004      5.48520     11.02469         0.996390     -0.246103      0.426644
O       7.54924      9.43961      2.71589        -0.059404      0.291216     -0.064113
O       7.53068      9.60415     15.33690        -0.037686      0.149694      0.445526
O       7.62561      9.58476      6.57120        -0.405748     -0.558038      0.608816
O       7.59256      9.69506     10.96185        -0.298519     -0.421517      0.022121
O      11.41925      1.75541      2.55895        -0.766313      0.894256      0.127703
O      11.43677      1.73630     15.24745         0.004090      0.075500      0.305113
O      11.48535     13.26452      2.53494        -0.004143      0.091824      0.083720
O      11.42863     13.29858     15.17508        -0.167099     -0.326665      0.354448
O      11.32826      1.69348      6.73474        -0.404257      0.118076      0.079914
O      11.31487     13.33705      6.81344         1.275971     -0.216634      0.365315
O      11.36865      1.60384     11.05422         0.071419      0.555269      0.405717
O      11.45054     13.28039     10.97382        -0.663846     -0.011904      0.930583
O      11.33671      5.77768      2.26692        -0.061013     -0.448270      0.667580
O      11.20145      5.66761     15.36765         2.064181      0.285643     -0.130445
O      11.37982      5.70439      6.81792         0.442711     -0.104406     -0.030850
O      11.38602      5.76630     11.19738        -0.905325      0.049959      0.401594
O      11.35984      9.62316      2.41255        -0.198611     -0.397385      0.440557
O      11.34829      9.40197     15.23833        -1.731348      0.571885      0.388887
O      11.38357      9.34449      6.93689        -0.502846      0.582339      0.250694
O      11.36618      9.36289     11.04774        -0.336084     -0.140406     -0.071844
O       1.78662      3.84916      2.57151         0.183814     -0.595333      0.034994
O       2.02526      3.88066     15.37808        -0.162184     -0.515358      0.110699
O       1.95209     15.13983      2.15689        -0.100961      0.761166      0.982134
O       1.80195     15.19607     15.07162         0.003924      0.155856      0.346582
O      13.13301      3.81437      2.49508         0.414927      0.503231     -0.149954
O      13.12141      3.70615     15.25384        -0.092321      0.860406      0.206292
O      13.23431      0.08912      2.46469         0.643624     -1.735298      0.225649
O      13.34455     15.17534     15.30395         0.722693     -0.008915     -0.200649
O       1.88164      3.76651      6.84134        -0.050671     -0.035138      0.391239
O       1.89191      0.02063      6.91252        -0.071973     -0.387224     -0.032513
O      13.04975      3.68862      6.58496         0.026205      1.460182      0.457309
O      13.28202     15.10896      6.82356         0.142440      0.192243      0.159104
O       1.96903      3.80868     10.99140         0.344754     -0.667277      0.063502
O       1.87715     15.15710     11.13888        -0.391569      0.654091      0.049435
O      13.10607      3.71225     11.10248         0.221877      0.098622      0.367481
O      13.51077     15.14752     10.82204         0.248574     -0.487361      1.370170
O       1.73576      7.65442      2.62388        -0.203759      0.194698      0.422523
O       1.95855      7.60167     15.30647        -0.567547     -1.038894      0.596106
O      13.27924      7.65213      2.42516        -0.455111     -0.429206      0.196897
O      13.06933      7.47883     15.16228         0.827330      0.306975      0.604956
O       1.66864      7.55680      6.69912         0.317974      0.125028      0.970163
O      13.32578      7.55090      6.49787         0.248884     -1.171052      1.031342
O       1.84784      7.46521     11.01187         0.059512     -1.024668      0.492800
O      13.31886      7.47717     11.14508        -0.031749      0.259316     -0.015804
O       1.73532     11.35423      2.52813         0.228625      1.058859      0.355426
O       1.90683     11.33940     15.05103        -0.330001      0.173857      0.702725
O      13.32005     11.45267      2.45034         0.200614     -0.113996      0.411797
O      13.29267     11.33007     15.09008        -0.058581      1.151108      0.837713
O       1.78796     11.40958      7.01891         0.197717     -0.394458     -0.122540
O      13.25293     11.40031      6.82425        -0.464265      0.759774      0.159672
O       2.11411     11.19687     11.05746        -0.235009      0.610278      0.092906
O      13.32809     11.29292     11.14283        -0.288070     -0.732623     -0.098219
O       5.59567      3.76157      2.39683        -0.056355      1.242130      0.659486
O       5.81682      3.81120     15.27367        -0.691108      0.252081      0.687933
O       5.65517     15.17884      2.49394        -0.270885      0.310380      0.360258
O       5.75272     15.18309     15.37269        -0.053364     -1.029906      0.081654
O       5.69055      3.71610      6.70481        -0.044030      1.331223      0.689128
O       5.63056      0.01516      6.66307         0.277144     -0.793312      0.937277
O       5.63170      3.72827     10.87691        -0.284678      0.093127      0.650659
O       5.84481     15.14795     10.85979        -0.375048      0.306146      0.742016
O       5.50068      7.63336      2.74484         0.996296     -0.503055      0.138351
O       5.79668      7.59367     15.34018         0.206248      1.256341      0.233225
O       5.68474      7.56389      6.60046        -0.065264      0.600102      0.876776
O       6.02513      7.56156     10.67286        -0.721139      0.404464      0.974543
O       5.59380     11.44417      2.56495         0.370546     -1.624798      0.464194
O       5.64445     11.43589     15.34099         0.181312     -0.841289      0.067278
O       5.59846     11.47322      6.80841         0.409724     -1.103667      0.140942
O       5.51845     11.42735     11.06907        -0.020544     -1.302065      0.002614
O       9.43114      3.71546      2.32384         0.271562      1.202843      0.170674
O       9.60407      3.70895     15.28586        -0.757197      0.262601      0.703628
O       9.48245     15.17020      2.65205         0.012653     -0.534590      0.565553
O       9.46170     15.08887     15.32303        -0.071027     -0.485598     -0.390547
O       9.40274      3.77104      6.77351         0.892895     -0.664363     -0.023885
O       9.29956     15.11619      6.70725         0.238841      0.138646      0.137418
O       9.64804      3.71624     11.10490        -0.196185     -0.114527      0.159854
O       9.40257     15.13193     11.12836        -0.130360     -0.029223      0.413611
O       9.41281      7.59952      2.32208        -0.180542      0.120699      0.956771
O       9.28511      7.63877     15.05442         0.593917     -0.040823      0.925943
O       9.49969      7.57602      6.64924        -0.501727     -0.569277      0.219937
O       9.27765      7.50673     11.03586         0.519104      1.057372      0.338818
O       9.30944     11.45015      2.58327         0.639599      0.014764     -0.125489
O       9.46065     11.38306     15.27222         0.550352      0.912352      0.783323
O       9.50373     11.32290      6.73818         0.650862      0.315356      0.826492
O       9.50600     11.30570     10.82109         0.814795      0.078584      0.477615
