  # total energy = -7866.22171258 
CRSYTAL
PRIMVEC
    15.010000000000000    0.0000000000000000    0.0000000000000000
     0.0000000000000000   15.010000000000000    0.0000000000000000
     0.0000000000000000    0.0000000000000000    16.400000000000000
PRESSURE
18.2098 17.8612 8.64432 -0.144918 0.142038 -0.020412
PRIMCOORD
320 1
Pb       3.60512      3.78469      4.02075         0.961600     -0.094558      0.578207
Pb       3.84960      3.67568      0.05497        -0.511271      0.217611     -0.633650
Pb       3.71709     14.98605      4.08180         0.204040     -0.123937      0.229301
Pb       3.63055     15.00342      0.01557         0.654666      0.068694     -0.006684
Pb       0.01866      3.69615      4.09621        -0.290411      0.198626      0.073104
Pb       0.05175      3.82990      0.08395         0.105502     -0.158219     -0.659458
Pb       0.07352     14.95375      4.01364        -0.505815      0.493776      0.494024
Pb      14.93814      0.01171     16.37758         0.155530     -0.307626     -0.023959
Pb       3.92419      3.69479      8.23296        -0.335662      0.235515     -0.822574
Pb       3.80158     14.93985      8.30369         0.051446     -0.370202     -0.287613
Pb       0.10689      3.66991      8.15811        -0.673738      0.674525     -0.052393
Pb       0.12266      0.06429      8.30746        -0.385588     -0.729105     -0.590772
Pb       3.75485      3.79602     12.34633        -0.173227     -0.070114     -0.250484
Pb       3.82286      0.04316     12.26266        -0.357677      0.092499     -0.057843
Pb      14.96511      3.64590     12.29263         0.851766      0.653362     -0.315372
Pb      14.91827     14.99944     12.31215         0.225240     -0.360135     -0.052616
Pb       3.60523      7.54460      4.04478         0.232194      0.050306      0.057367
Pb       3.71617      7.43921     16.39973         0.005644      0.081687     -0.073887
Pb      14.88165      7.42361      4.08786         0.237116      0.379394      0.525473
Pb       0.01908      7.48118      0.03381         0.019548      0.420733     -0.516588
Pb       3.66498      7.45351      8.27568         0.438155      0.351560     -0.618706
Pb      14.94247      7.43018      8.14907        -0.199202      0.490681      0.186425
Pb       3.81006      7.51616     12.33420        -0.123942     -0.583086      0.108362
Pb       0.14312      7.49859     12.35483        -0.411206     -0.133456     -0.176652
Pb       3.66558     11.32600      3.94896        -0.154841     -0.287982      0.292797
Pb       3.70281     11.28617      0.07639         0.211921     -0.420559     -0.279509
Pb      14.87306     11.31010      4.13140         0.170315     -0.505041      0.090188
Pb      14.96820     11.13089     16.36441        -0.069232      0.392297     -0.483897
Pb       3.68726     11.16593      8.23287         0.202329      0.501174      0.049500
Pb      14.89614     11.20254      8.32032         0.299437     -0.195324     -0.748162
Pb       3.75637     11.25611     12.37220        -0.550078      0.133822      0.028994
Pb      14.98936     11.19698     12.28032         0.460363      0.198902      1.256735
Pb       7.48857      3.64925      4.16920        -0.068667      0.416690     -0.026253
Pb       7.46081      3.80954      0.00663         0.408259     -0.440222      0.014651
Pb       7.42143      0.03059      4.06247         0.221886     -0.202529      0.303504
Pb       7.51528      0.02826      0.07027        -0.168436      0.175983     -0.558138
Pb       7.57346      3.82562      8.31288         0.175853     -0.110899     -0.866052
Pb       7.48404     14.78325      8.32904         0.345130      0.509222     -0.371405
Pb       7.57544      3.61738     12.28919         0.135151      0.357535      0.302473
Pb       7.49881      0.00665     12.31663         0.083598     -0.248226      0.195257
Pb       7.43227      7.52062      4.09743        -0.283977     -0.716298      0.005447
Pb       7.45515      7.51895      0.13406        -0.058602     -0.104612     -0.911878
Pb       7.47754      7.58479      8.21287        -0.443373     -0.148988     -0.188395
Pb       7.51598      7.31939     12.29348         0.025245      0.841018      0.556190
Pb       7.33920     11.31917      4.09223         0.181307      0.260230     -0.667957
Pb       7.50455     11.24567      0.10401        -0.178369     -0.095171     -0.726801
Pb       7.43512     11.17921      8.35358        -0.223249      0.035044     -0.384509
Pb       7.50544     11.16492     12.46240         0.473911      0.002454      0.185654
Pb      11.38670      3.70380      4.10193        -0.402579      0.298169      0.013919
Pb      11.15531      3.74248      0.01344         0.282338      0.063565     -0.274293
Pb      11.23855      0.04302      4.13843         0.198766     -0.224767     -0.047226
Pb      11.13333     14.96444      0.02826         0.325748      0.023377     -0.662626
Pb      11.24849      3.77265      8.18432        -0.010410     -0.063743     -0.258314
Pb      11.31996     14.96203      8.24222        -0.769102      0.132173     -0.360239
Pb      11.31992      3.73780     12.36125         0.215445     -0.111306     -0.364457
Pb      11.24280     14.93763     12.22208         0.412303      0.598191      1.386764
Pb      11.01012      7.42057      4.09787         1.376905      0.131503      0.890366
Pb      11.19730      7.51006     16.38998         0.544024     -0.009796     -0.292007
Pb      11.16508      7.50793      8.25232         0.719853      0.336352     -0.302906
Pb      11.26716      7.50671     12.38998         0.242071      0.371209     -0.280863
Pb      11.16321     11.32960      4.19877         0.914000     -0.540205     -0.158449
Pb      11.15388     11.32366      0.10279         0.759823     -0.547246     -1.071217
Pb      11.14812     11.17254      8.19431         0.135250     -0.253880     -0.183088
Pb      11.27101     11.27523     12.34073        -0.265852     -0.516593      0.518854
Ti       1.92109      1.81632      2.05439        -1.358067     -0.010373      0.844389
Ti       1.86835      1.88500     14.40421         1.100553      0.035880     -0.022425
Ti       1.76089     13.10124      2.03533         1.492756      0.616341      0.242853
Ti       1.89966     13.14075     14.48004        -1.730265     -0.856683     -1.317968
Ti      13.14313      1.89349      1.99690         0.414098     -0.385465      0.695150
Ti      13.15272      1.89076     14.40329        -0.730375      0.052938      0.016560
Ti      13.09526     13.15882      2.03694        -0.306298     -0.262797      1.208330
Ti      13.10681     13.17725     14.35026         0.110131     -2.964749      0.310604
Ti       1.88191      1.84581      6.21919         0.641487      0.550483     -0.803839
Ti       1.75849     13.15119      6.28805         1.432440     -1.173816     -0.242300
Ti      13.10864      1.84482      6.18251         0.861949      0.335285      0.610365
Ti      13.05801     13.12939      6.26732         0.114300     -0.351953     -0.500481
Ti       1.91929      1.83301     10.19317         0.497625      1.769786      1.213929
Ti       1.86629     13.11413     10.39047         0.072918     -0.018482     -0.736967
Ti      13.16453      1.91243     10.24098         0.088771     -0.432536      0.213049
Ti      13.12219     13.09355     10.26139         0.997085      0.560070      0.727754
Ti       1.83388      5.62304      2.10896         0.258914      0.650861     -0.479413
Ti       1.88494      5.61099     14.35120        -0.166448      0.160972      0.750687
Ti      13.11887      5.62995      2.03053         0.038460     -0.369900      1.680818
Ti      13.16871      5.63056     14.36383        -0.292965      0.297106      1.018951
Ti       1.83464      5.62958      6.23967         0.576577     -0.184099     -0.023078
Ti      13.09152      5.57337      6.23334         0.170460      0.695060     -0.960131
Ti       1.97730      5.60869     10.24583        -0.880896     -0.630424      1.320509
Ti      13.22248      5.64587     10.27390         0.448128      0.621114     -0.128486
Ti       1.81940      9.41519      2.03143         1.285698     -1.079871      0.135477
Ti       1.99828      9.38150     14.36011        -2.336773      0.089603     -0.154569
Ti      13.10834      9.35436      2.10206         0.483838      0.622864     -0.356192
Ti      13.14661      9.41779     14.47188         0.175846     -0.054760      0.050444
Ti       1.84791      9.35246      6.29674        -0.644062      0.749220     -1.196799
Ti      13.11908      9.33760      6.16680        -0.132049     -0.275614      1.916627
Ti       1.83127      9.35889     10.28868        -0.530788     -0.030063      0.102979
Ti      13.10401      9.41347     10.43122        -0.054910     -1.773784     -1.405851
Ti       5.63523      1.89860      2.07404         0.661718     -0.224964      1.092513
Ti       5.62307      1.83083     14.33312        -0.021761      0.545826      0.858232
Ti       5.58448     13.19664      1.93529         0.498538     -0.689869      0.534647
Ti       5.60672     13.14921     14.43005         0.915099     -0.357214      0.013366
Ti       5.72291      1.85454      6.26306        -0.881179      0.846365     -0.489118
Ti       5.54813     13.12116      6.25007        -0.211413      0.171782     -0.759161
Ti       5.71898      1.95891     10.26433        -1.005499     -1.720696      0.485274
Ti       5.63192     13.03517     10.45593        -0.277911      0.887139     -0.905941
Ti       5.62009      5.66771      2.08265        -0.524039     -0.862411      0.773343
Ti       5.67710      5.59741     14.41759        -0.584301      1.192457     -0.466992
Ti       5.59509      5.68719      6.18545         0.434113     -0.691001     -0.916075
Ti       5.73879      5.63334     10.26219        -0.875880      0.563876      0.506965
Ti       5.65676      9.41241      2.07079        -1.446342     -0.500865     -0.418118
Ti       5.63919      9.40440     14.45037         0.476267     -1.073547      0.565886
Ti       5.54385      9.43957      6.09395        -0.133686     -0.700093      1.779117
Ti       5.54550      9.35489     10.44086         0.302531      0.489505     -1.425729
Ti       9.43074      1.87589      2.09867        -1.082404      0.646086      0.261434
Ti       9.39238      1.84153     14.45147        -0.918979     -0.268435     -0.623771
Ti       9.34828     13.09700      2.06507        -0.657711     -0.382602     -0.044797
Ti       9.33856     13.05473     14.42180         0.219250      0.468924      0.911375
Ti       9.36040      1.84093      6.27384         0.482587     -0.544703     -0.462416
Ti       9.23698     12.98500      6.14367         0.800170      1.404548      1.135507
Ti       9.44529      1.84781     10.32298         0.428718      1.384004     -0.708318
Ti       9.42631     13.15017     10.35098        -1.122882     -1.138231     -0.716544
Ti       9.41191      5.62997      2.09901        -1.706022     -0.925404      0.331817
Ti       9.40014      5.57090     14.33900        -0.433552     -0.205345      1.259214
Ti       9.31696      5.63605      6.23883        -0.253739     -1.129735     -0.709190
Ti       9.51442      5.62856     10.31616        -1.128620     -0.374966     -0.579055
Ti       9.40647      9.35284      2.09726        -0.442098      1.070053     -0.158020
Ti       9.38849      9.30762     14.46210         0.317849      0.705133     -0.887734
Ti       9.29197      9.34219      6.13598         1.350835      0.487740     -0.472596
Ti       9.31009      9.35461     10.41331         0.309421      0.481759      0.897268
O       1.87037      1.67202      0.30141        -0.329475      0.635723     -1.192779
O       2.08911      1.79802     12.60810        -0.595730      0.364527      0.203513
O       1.89744     13.11516      0.25791        -0.488819      0.167261     -0.622739
O       1.87371     13.01811     12.59867         0.243637      0.654256      0.053194
O      13.13239      1.81188      0.22594        -0.007908     -0.012348     -1.443349
O      13.15577      1.84088     12.57391         0.073362      0.296452      0.588598
O      13.12713     13.12427      0.28659        -0.163530      0.221528     -0.348279
O      13.10916     13.01389     12.53810         0.065242      0.720101      0.105556
O       1.90221      1.83332      4.33908        -0.010441      0.086793      0.291598
O       1.82684     13.09477      4.42680         0.110161      0.073247     -0.246943
O      13.10722      1.83346      4.36442        -0.348742      0.196527     -0.111206
O      13.03215     13.20294      4.42258         0.284426     -0.140507      0.207533
O       1.81829      1.91044      8.39369         0.313661     -0.184338     -0.395140
O       1.88050     13.26853      8.55787        -0.279702     -0.159505     -0.433749
O      13.16008      1.79355      8.40982        -0.108713      0.414946      1.628314
O      13.10188     13.01278      8.45972        -0.051577      0.310638     -0.303146
O       1.80486      5.65870      0.27449         0.004396     -0.378409      0.352396
O       1.81328      5.51961     12.57327         0.475216      0.081292     -0.401224
O      13.28234      5.61501      0.27583        -0.379017     -0.399527     -0.546878
O      13.12870      5.59889     12.58661         0.063510     -0.029987     -0.295839
O       1.80012      5.74900      4.42958         0.319261     -0.563885     -0.722854
O      13.17097      5.53689      4.34875        -0.376259      0.211686      1.084232
O       1.82002      5.62206      8.47475         0.671937     -0.119182     -0.586929
O      13.05136      5.57942      8.45331         0.128224      0.103754      0.533936
O       1.81414      9.37386      0.22153         0.256881      0.224256      0.076505
O       1.82296      9.43003     12.49351         0.751751     -0.269473      1.085834
O      13.20878      9.40235      0.28174        -0.014404     -0.062576      0.645246
O      13.12779      9.39933     12.65252        -0.425802     -0.428895     -0.708112
O       1.93560      9.32218      4.43866        -0.553223      0.461534     -0.196540
O      13.09839      9.29536      4.45417         0.327459     -0.057264     -2.979323
O       1.90470      9.25910      8.45615        -0.057875      0.170106      0.668096
O      13.14648      9.48373      8.53864        -0.314433     -0.289309      1.058698
O       5.67356      1.80107      0.32817         0.145513      0.435739     -1.325620
O       5.55054      1.82412     12.53171         0.143574      0.171951     -0.673227
O       5.78502     13.11627      0.12881        -0.469986      0.218071      0.549306
O       5.71650     13.16868     12.57825        -0.678438     -0.226987     -0.423191
O       5.72896      1.84000      4.40873        -0.406956     -0.372899      0.001438
O       5.61608     13.27470      4.37518        -0.289289     -0.896444      0.917654
O       5.67800      2.03729      8.46975         0.245114     -0.482340      0.101487
O       5.57131     12.96935      8.61790         0.599000      0.414049     -0.534744
O       5.42216      5.56525      0.25283         0.469339     -0.009820      0.019214
O       5.65445      5.68653     12.56665         0.224472     -0.360169      0.544575
O       5.68970      5.71362      4.33717         0.062953     -0.126048      0.192963
O       5.65707      5.65596      8.45006        -0.029790     -0.088509      0.274414
O       5.70291      9.40713      0.22989        -0.096448     -0.418075      0.470327
O       5.53452      9.23787     12.64378        -0.018459      0.586952     -0.611440
O       5.55169      9.49072      4.33349         0.239858     -0.187569     -1.084520
O       5.55799      9.51143      8.56280         0.175951     -0.827132      0.998027
O       9.27449      1.95354      0.27093         0.418386     -0.594652      0.338299
O       9.35583      1.75122     12.60155         0.232147      0.776322      0.033508
O       9.21405     12.97585      0.18207         0.600689      1.134067      1.707210
O       9.42179     13.12686     12.65414        -0.097343      0.386971     -1.968193
O       9.43224      1.80323      4.36891         0.050543      0.311468      0.698808
O       9.35221     12.91323      4.33046        -0.073914      0.335030     -0.322125
O       9.43497      1.71782      8.51461        -0.067297      0.456410     -0.051720
O       9.30946     13.07823      8.50895         0.383372      0.094218      0.844127
O       9.44756      5.49680      0.31535        -0.210887      0.738846     -0.438427
O       9.33513      5.45253     12.55731         0.289002      0.141991     -0.619852
O       9.21671      5.71712      4.37726         0.373479     -0.232703     -0.160333
O       9.35981      5.65986      8.45945         0.301093      0.235944      0.313196
O       9.36597      9.22550      0.25797        -0.435451      0.108952     -0.005976
O       9.52733      9.37054     12.59334        -0.408388     -0.121006      0.750494
O       9.49936      9.41457      4.28740        -0.799106      0.080204      0.809313
O       9.39640      9.37257      8.61496        -0.205839     -0.298883     -0.770903
O       3.76782      1.94881      2.20656        -0.251390      0.298674      0.846029
O       3.77720      1.69766     14.81769        -0.712560      0.545481     -0.361226
O       3.73458     13.04987      2.17713        -0.343548     -0.402836      0.589792
O       3.72341     13.22198     14.70570         0.669720      0.180220     -0.029246
O      14.96326      1.67789      2.24895         1.157936      0.177647      0.464963
O       0.01870      2.10626     14.59783        -0.559585     -0.497886      0.214977
O      14.96253     13.25300      2.32464        -0.576791      0.105601      0.304685
O      14.96022     12.94671     14.70025         0.807626      0.109619     -0.009801
O       3.81941      1.89109      6.49742        -1.094679      0.026201      0.107987
O       3.73134     13.14458      6.50436        -0.337950      0.407050      0.116636
O       0.00245      1.83656      6.46119        -0.704713     -0.540400     -0.090240
O      14.99573     13.28343      6.50029        -1.795782     -0.116801      0.141517
O       3.79270      1.99890     10.47819         0.762464      0.681127     -0.039419
O       3.71209     12.80831     10.39744         1.013505      0.188287      1.452187
O       0.07749      1.67290     10.66887        -1.124639      0.222940     -0.499011
O      14.97721     13.32497     10.52526         0.213210      0.341545      0.271621
O       3.70152      5.56719      2.50138        -0.172726     -0.689215     -0.394213
O       3.68538      5.73850     14.58858         1.890455      0.188925      0.096287
O      14.98839      5.70017      2.54647         0.421066     -0.537443     -1.045158
O       0.01020      5.44770     14.61157        -0.802415     -0.080249      0.329067
O       3.75856      5.52478      6.48864        -1.064907      0.285792      0.088360
O      14.97710      5.60061      6.52065        -0.430910      0.647409      0.107815
O       3.84160      5.48599     10.68269        -0.111003     -0.242055     -0.671653
O       0.12307      5.75414     10.57849        -1.623780      0.293909     -0.070170
O       3.74052      9.50081      2.30767        -0.173386      0.318724      0.163090
O       3.76145      9.21328     14.71922         0.582215     -0.140305     -0.027980
O       0.05462      9.37816      2.33984        -1.755263     -0.465451      0.602883
O       0.03279      9.52091     14.59090        -0.105785     -0.133512      0.370374
O       3.70266      9.36563      6.38571         0.738705     -0.302553      0.629574
O      14.99630      9.30618      6.59347         0.094360     -0.135546     -0.241605
O       3.63896      9.59524     10.58815         1.818926      0.100436      0.242827
O      15.00130      9.12133     10.65852        -0.362194      0.164025     -0.378741
O       7.53105      1.71136      2.37326        -0.316789     -0.010794      0.025851
O       7.44162      1.94278     14.56800         0.461232     -0.146413      0.420101
O       7.45714     13.21904      2.44243         0.228325      0.257633     -0.434965
O       7.47420     12.89161     14.58128        -0.117415      0.419106     -0.033356
O       7.54405      1.89447      6.50832        -0.102998      0.191176      0.146897
O       7.42615     12.85076      6.49638        -0.025638      0.461852      0.090684
O       7.60299      1.72212     10.62243        -1.353710     -0.398749     -0.121803
O       7.55419     13.39836     10.49483        -0.032635     -0.150000      0.541661
O       7.45185      5.86396      2.11546         0.756287     -0.092786      0.510063
O       7.53902      5.48199     14.77854        -0.696381      0.425955     -0.188055
O       7.49524      5.65153      6.44180        -0.413737      0.164118      0.647855
O       7.54593      5.78654     10.54360         0.071333      0.126499     -0.131115
O       7.45898      9.27716      2.44387         0.324760     -0.462123     -0.225453
O       7.52805      9.50778     14.58049        -0.144558     -0.000565      0.230771
O       7.50345      9.43559      6.55955        -1.056730     -0.511166     -0.501754
O       7.45204      9.10665     10.72859         0.586783      0.638410     -0.442208
O      11.28153      2.05710      2.20101        -1.015479     -0.171155      0.602977
O      11.19770      1.78025     14.63037         1.537145     -0.286618      0.457423
O      11.23310     12.89282      2.24651        -1.065248      0.364155      0.227397
O      11.23365     13.12562     14.75039         0.283122      0.969468      0.254883
O      11.24123      1.95470      6.55492        -0.141116     -0.349828     -0.338007
O      11.15695     12.94633      6.48440         0.648525      0.359329     -0.104424
O      11.35308      2.02155     10.65598        -0.608719      0.519165     -0.334001
O      11.31279     12.92493     10.53272        -1.246032      0.124233      0.174552
O      11.20854      5.52569      2.39110         1.676781      0.204106      0.040759
O      11.21771      5.71633     14.69119         0.501573     -0.356721     -0.048927
O      11.18686      5.52810      6.40935         0.813980      0.055016      0.142679
O      11.30406      5.46325     10.57220        -0.032703     -0.401816      0.168414
O      11.25774      9.48225      2.25763        -0.237877     -0.167032      0.203750
O      11.27758      9.27078     14.87102        -0.745795     -0.255813     -0.455354
O      11.26178      9.37202      6.39444        -1.063007      0.333773      0.790849
O      11.24581      9.45050     10.63215         0.005141      0.440579     -0.132170
O       1.75924      3.70517      2.24964        -0.058600      0.105273      0.451375
O       2.06322      3.75352     14.80863        -0.233341     -0.809115     -0.271430
O       1.97801     14.96930      2.37807        -0.003103     -0.130590      0.396522
O       1.68948     14.98387     14.70471         0.091825      0.564246     -0.210294
O      13.23683      3.74601      2.36983         0.055514      0.126588     -0.154717
O      12.91136      3.72870     14.66305         0.312740      0.187570     -0.160258
O      12.93365      0.05360      2.38774        -0.272666     -1.575708     -0.169867
O      13.24944     14.93162     14.59506         0.043249      2.783708      0.346736
O       1.58843      3.76359      6.38047         1.530946     -0.857152     -0.044440
O       1.85501      0.01278      6.48281         0.431267      0.216799      0.141127
O      13.17043      3.73208      6.49183        -0.247731     -0.559306      0.022402
O      12.94720      0.02610      6.54053         0.227149     -1.253921     -0.363154
O       1.74161      3.71094     10.51150         0.296641      0.211412      0.231255
O       2.13504      0.05106     10.42696        -0.070632     -1.567903      0.788664
O      13.28989      3.80526     10.62498         0.128167     -1.660855     -0.146684
O      12.96205      0.00884     10.68864         0.471553     -0.285343     -1.095619
O       2.01149      7.47864      2.18414        -0.354766      0.852087      0.679091
O       1.74181      7.52752     14.67519        -0.129963     -0.668813     -0.307911
O      13.19476      7.46452      2.30645        -0.707570      0.783406      0.233913
O      13.15715      7.49679     14.79770         0.409624     -0.698763     -0.473386
O       1.85998      7.45810      6.55186         0.202608      0.443653      0.135154
O      13.09279      7.45235      6.54935        -0.077986     -0.142252      0.000326
O       2.11120      7.47580     10.59596        -0.038823      0.215328     -0.083997
O      12.90113      7.45202     10.62694         0.524912      0.509028     -0.162458
O       1.71585     11.29815      2.27062         0.478912     -0.603127      0.644916
O       2.08079     11.22124     14.71006        -0.207107      0.463574     -0.067275
O      13.14438     11.21907      2.49148         0.667070      0.765738     -0.191082
O      12.97656     11.24872     14.69900         0.026789      0.005428      0.243103
O       1.80128     11.27247      6.69070        -0.144361     -0.085815     -0.680930
O      13.30192     11.21555      6.33344        -0.325233      1.350519      0.342147
O       1.59458     11.25771     10.55350         0.048634     -0.401874     -0.593326
O      13.33471     11.23343     10.67105        -0.302815      0.414824     -0.807192
O       5.75692      3.75941      2.45110        -0.261696     -0.184598     -0.287243
O       5.54475      3.74805     14.60466        -0.556859     -0.426701      0.382368
O       5.42668     14.96673      2.31497         0.518031      1.407661      0.235786
O       5.66037      0.00633     14.65563         0.546162     -0.890006      0.048641
O       5.62828      3.79557      6.41229         0.406011     -0.796129      0.271213
O       5.76926     14.99495      6.62157        -0.392967     -0.590610     -0.101843
O       5.94503      3.78289     10.50216        -0.561759     -0.480914      0.369097
O       5.46924     14.98144     10.50834         0.103430      0.404764     -0.000361
O       5.41897      7.48344      2.28325         0.242414      1.192404      0.035306
O       5.78584      7.47201     14.75504        -0.205190      0.016913      0.056484
O       5.64039      7.52989      6.46782        -0.088966      0.935702      0.222608
O       5.51620      7.53008     10.59281        -0.619560     -1.032420     -0.229297
O       5.68345     11.29159      2.18675         0.294471     -0.010811      0.750293
O       5.46199     11.23222     14.66461        -0.333415      0.427618     -0.302266
O       5.46004     11.22528      6.55309         0.504164      0.430826     -0.576128
O       5.90870     11.19626     10.71641        -0.263803      0.396782      0.210472
O       9.25407      3.77294      2.42048        -0.234900     -0.397727      0.011138
O       9.32163      3.69962     14.80800         0.806753      0.300449     -0.611926
O       9.48318     14.96457      2.34723         0.388682      0.040164     -0.362067
O       9.26021     14.98687     14.79026        -0.133073     -0.198992      0.198265
O       9.31233      3.73552      6.59687         0.182399     -0.205050     -0.299884
O       9.20549     14.89657      6.47471         0.687740     -0.111705     -0.284208
O       9.15388      3.76636     10.46969         0.542715     -0.619356      0.254074
O       9.69174      0.06670     10.57026        -0.429968     -2.496996     -0.098824
O       9.46382      7.54587      2.44289        -0.427267     -1.223615     -0.512483
O       9.27200      7.44267     14.50994        -0.023723     -0.138424      0.661282
O       9.42932      7.48294      6.41832        -0.182048      1.126949      0.444269
O       9.50139      7.45627     10.59398         0.405077      0.485701      0.366894
O       9.03793     11.19816      2.15235         0.762616      0.588147      0.649389
O       9.53505     11.24161     14.65207        -0.121153     -1.234091      0.109820
O       9.31787     11.14810      6.59483         0.513559      0.319706     -0.294028
O       9.17355     11.26040     10.71693         0.251438      0.302263     -0.533483
