  # total energy = -7884.79021155 
CRSYTAL
PRIMVEC
    15.3600000000000000    0.0000000000000000    0.0000000000000000
     0.0000000000000000   15.3600000000000000    0.0000000000000000
     0.0000000000000000    0.0000000000000000    17.440000000000000
PRESSURE
1.24165 0.874416 -2.79011 -0.154326 -0.308984 0.004324
PRIMCOORD
320 1
Pb       3.86780      3.77173      4.28852        -0.182242     -0.193324     -0.249494
Pb       3.74093      3.82360     17.42769        -0.046583      0.150376      0.024019
Pb       3.81637     15.29389      4.31324         0.000222      0.135320     -0.229585
Pb       3.77712     15.25749     17.36668         0.020995      0.265066      0.319748
Pb       0.03187      3.79648      4.26869         0.002930     -0.087067      0.421944
Pb      15.29257      3.79626     17.33960         0.694483      0.056862      0.352818
Pb      15.35683      0.00945      4.34763         0.100370      0.066992      0.007668
Pb       0.10651      0.00688     17.36476        -0.302144     -0.209287      0.236156
Pb       3.84544      3.78954      8.71260        -0.003217      0.354948     -0.010313
Pb       3.83389      0.01456      8.51415        -0.008110     -0.322760      0.859385
Pb       0.11606      3.85457      8.73024        -0.335718      0.019824     -0.149530
Pb      15.31871     15.29400      8.69834        -0.093269      0.473224     -0.039805
Pb       3.83650      3.85751     13.09134         0.081394      0.137153     -0.100056
Pb       3.88787      0.10918     13.05055        -0.137080     -0.296966      0.165573
Pb       0.03006      3.85110     13.01410        -0.202116     -0.021312     -0.305382
Pb      15.32405     15.29233     13.09942        -0.004132      0.088322     -0.482247
Pb       3.79825      7.65129      4.35744         0.127473     -0.185036     -0.005492
Pb       3.89099      7.64743     17.34420        -0.521315     -0.013864      0.361008
Pb      15.26128      7.71508      4.30702        -0.020395     -0.374104      0.519585
Pb      15.35697      7.54819      0.01258         0.473058      0.065013     -0.266459
Pb       3.72215      7.73543      8.59589         0.169684     -0.307832      0.809687
Pb      15.35314      7.71964      8.63172        -0.143183     -0.056250      0.322387
Pb       3.88253      7.66961     12.98115        -0.668276     -0.029506      0.572756
Pb      15.26872      7.62970     13.02048         0.480249      0.268647     -0.446825
Pb       3.93762     11.48443      4.38639        -0.104444      0.406769     -0.094784
Pb       3.69433     11.62483     17.40845         0.493159     -0.728278      0.016641
Pb      15.24321     11.39841      4.42572         0.170580      0.322477     -0.082452
Pb      15.35313     11.50612     17.42915         0.133564     -0.018135     -0.149767
Pb       3.90564     11.45026      8.63438        -0.412436      0.363227      0.270581
Pb      15.32856     11.59889      8.69449         0.349209     -0.567114      0.136327
Pb       3.78619     11.49187     13.05811        -0.031309     -0.183966     -0.192411
Pb      15.34059     11.51338     12.96978         0.040432     -0.513767     -0.306013
Pb       7.63012      3.86059      4.25965        -0.111509     -0.453784      0.029655
Pb       7.57451      3.76099      0.06460         0.150472      0.471662     -0.491421
Pb       7.62153     15.23530      4.40744         0.180336      0.097363     -0.367960
Pb       7.78551     15.32899     17.43054        -0.402052     -0.214381      0.065240
Pb       7.66199      3.87157      8.62027         0.217365      0.180384     -0.143573
Pb       7.65122      0.09408      8.73089         0.270835     -0.409530     -0.362164
Pb       7.67861      3.80342     12.93920         0.030503      0.167599      0.796272
Pb       7.61734     15.32304     13.05744        -0.007345     -0.227285     -0.050320
Pb       7.73931      7.70564      4.37873        -0.286841      0.125054      0.135818
Pb       7.59092      7.74184     17.36984         0.015475     -0.754886      0.299380
Pb       7.77001      7.54041      8.71136        -0.185779      0.375094     -0.283754
Pb       7.75665      7.73009     13.08871        -0.478536     -0.377094      0.008945
Pb       7.64752     11.50509      4.34207        -0.277847     -0.329959      0.042958
Pb       7.66616     11.41963     17.38036        -0.153003      0.316503     -0.103568
Pb       7.64244     11.58793      8.67675         0.408504     -0.540003      0.017947
Pb       7.57461     11.45093     12.98036        -0.046295      0.454969      0.318840
Pb      11.46541      3.90615      4.29531         0.426531     -0.368002     -0.223900
Pb      11.52162      3.83538     17.42313        -0.254723     -0.259146     -0.192106
Pb      11.56534     15.30142      4.44257        -0.157470      0.089319     -0.573565
Pb      11.48435     15.35650      0.08530         0.207399      0.074596     -0.559693
Pb      11.50007      3.70905      8.66572        -0.207394      0.479234      0.033413
Pb      11.51587      0.10414      8.72921         0.125874     -0.412856     -0.507073
Pb      11.52707      3.79742     12.97669        -0.012006      0.096925     -0.004170
Pb      11.53476      0.00975     13.07841        -0.276955     -0.560262     -0.400462
Pb      11.49488      7.60161      4.38401         0.112195      0.579992     -0.342765
Pb      11.50577      7.74700     17.35802        -0.149345     -0.597897      0.315601
Pb      11.53420      7.69566      8.66576        -0.364247     -0.104873     -0.097636
Pb      11.53921      7.59393     13.14614         0.072469      0.244516     -0.362088
Pb      11.48529     11.57190      4.24689         0.090171     -0.460478      0.252556
Pb      11.49727     11.48228     17.41096        -0.273545      0.099946     -0.200414
Pb      11.55489     11.51133      8.59237        -0.708053      0.040268      0.583609
Pb      11.54343     11.54331     13.10388        -0.178358      0.197540     -0.336277
Ti       1.90017      1.87261      2.33454         0.212904      0.170378     -0.857790
Ti       1.93157      1.87737     15.37091        -0.203643      0.250433     -1.160661
Ti       1.87396     13.36544      2.42072         0.896352      0.341509     -0.676855
Ti       1.90602     13.36078     15.33254         0.004389      0.365975     -0.658606
Ti      13.36713      1.86642      2.35115         0.873429      0.113525     -0.227064
Ti      13.47164      1.86169     15.38163        -0.587519     -0.360482      0.276405
Ti      13.46151     13.40472      2.32293         0.060282      0.376177     -0.615298
Ti      13.39216     13.41455     15.48104        -0.093780      0.455366     -1.387797
Ti       1.89532      1.93713      6.77496        -0.792470      0.400239     -1.780511
Ti       1.87652     13.47526      6.71649         0.322728     -0.572279     -1.137686
Ti      13.40801      1.92399      6.69371         0.693917     -0.116071      0.077710
Ti      13.45255     13.40559      6.64163        -1.326550      0.555030     -0.079876
Ti       1.91756      1.85786     11.07179        -0.316183      0.191894     -0.797557
Ti       1.89573     13.45167     11.05911        -0.253247     -0.702996     -1.030333
Ti      13.43931      1.89343     11.02696         0.276117      0.096746     -0.989181
Ti      13.39407     13.43730     10.91967        -0.313376     -0.409932     -0.228630
Ti       1.90732      5.76710      2.37901        -0.049818     -1.263210     -2.089508
Ti       1.93178      5.69859     15.34518        -0.279256      0.196349      0.247570
Ti      13.46414      5.73342      2.34455        -0.643667      0.000206     -0.853918
Ti      13.44043      5.67698     15.45880        -0.424080      0.828682     -0.307944
Ti       1.91821      5.77441      6.69098        -1.232884     -0.241221     -0.729379
Ti      13.40802      5.66233      6.68604         0.671296      1.109088     -0.349563
Ti       1.85793      5.71308     11.05672         0.369485      1.082212     -0.792625
Ti      13.34837      5.78504     10.92783         0.991056     -0.492731      1.659155
Ti       1.81596      9.55139      2.39887         0.795867      0.371129     -1.270823
Ti       1.86066      9.53045     15.36717         0.980950     -0.443611     -1.578659
Ti      13.34513      9.59629      2.28484        -0.212650     -0.134134     -0.514711
Ti      13.43495      9.57528     15.48066        -0.158700     -0.428374     -1.239499
Ti       1.86499      9.60930      6.64970        -0.795503      0.636413     -0.085548
Ti      13.37060      9.54976      6.68292         0.455223     -0.127089     -1.181084
Ti       1.87321      9.55152     11.05876        -0.643270     -0.234822     -0.127495
Ti      13.31541      9.60588     10.99728         1.413873     -0.216655      0.130943
Ti       5.76524      1.88793      2.21651        -0.539779     -0.094637      1.436377
Ti       5.73003      1.85164     15.46090        -0.107553      0.882432     -0.779314
Ti       5.80680     13.41565      2.27010        -1.076534     -0.263735      0.044018
Ti       5.75950     13.46879     15.43479         0.511416     -1.087703     -1.761357
Ti       5.75876      1.88760      6.65697         0.519472      0.070807     -0.708305
Ti       5.75899     13.40527      6.73787         0.268975     -0.623726     -1.607344
Ti       5.78731      1.93088     11.01317        -0.320995     -0.128504     -0.460434
Ti       5.65218     13.44517     11.03764         0.459400      0.241810     -0.556139
Ti       5.76498      5.84194      2.42798        -0.741701     -0.783484     -0.919900
Ti       5.75392      5.74725     15.35680        -0.026146     -1.006958     -0.006650
Ti       5.68327      5.71936      6.70604         1.035954      0.447884     -0.905782
Ti       5.76511      5.77059     11.01967        -0.446426     -0.087499     -0.947001
Ti       5.60566      9.56498      2.32716         2.007975      0.245601     -0.639432
Ti       5.68839      9.62005     15.42173        -0.550187     -0.084543     -0.935504
Ti       5.67545      9.52862      6.68735         1.502473      0.538707     -0.417817
Ti       5.67273      9.56593     11.02433         0.153781     -0.145890     -0.242325
Ti       9.57218      1.82998      2.31936         0.318684     -0.233450     -0.151883
Ti       9.55235      1.86142     15.41487         0.158540      0.476348     -0.208440
Ti       9.58783     13.35505      2.31567         0.021061      0.705890     -0.091828
Ti       9.56848     13.41687     15.42411        -0.446710     -0.301757     -0.787952
Ti       9.55285      1.95244      6.56391         0.094010     -0.311917      1.188776
Ti       9.60534     13.44739      6.70463        -0.258271     -0.006346     -0.298937
Ti       9.58663      1.88900     10.99883         0.080969     -0.650919     -0.529026
Ti       9.58160     13.39427     11.02696        -0.163220      0.264492     -0.119630
Ti       9.57522      5.71169      2.30051        -0.502447      0.323192     -0.891224
Ti       9.56208      5.64551     15.47860        -0.705603      0.003412     -0.977998
Ti       9.66266      5.77037      6.58804        -1.071526     -0.007832      0.362265
Ti       9.55971      5.72300     11.05998        -0.177175      0.267546     -1.863786
Ti       9.52217      9.56457      2.32064        -0.489428     -0.109407      0.030565
Ti       9.52456      9.51472     15.38774         0.120848      0.484889     -0.540515
Ti       9.53241      9.57750      6.74864        -0.462605     -0.091251      0.635836
Ti       9.57320      9.57955     11.09908        -0.199616      0.539762     -1.689349
O       1.90778      1.80033      0.50882        -0.158353      0.058599      0.832607
O       2.01288      1.90076     13.55455        -0.505230      0.046924      0.311514
O       1.91722     13.37561      0.57180        -0.122001     -0.099433      0.471191
O       1.93025     13.32141     13.55126        -0.234411      0.231301      0.555385
O      13.34400      1.87154      0.59174         0.267084      0.139488     -0.735213
O      13.49136      1.79081     13.60995        -0.366035      0.269965     -0.009879
O      13.45083     13.36493      0.51596         0.079162     -0.099601      0.433686
O      13.26982     13.50884     13.63079         0.446987     -0.383559      1.445152
O       1.94374      1.97715      4.97100        -0.043152     -0.127752      0.672197
O       1.89882     13.50214      4.92908        -0.007198     -0.099255      0.493117
O      13.37814      1.84183      4.96594        -0.140418      0.134946     -1.447500
O      13.45571     13.43033      4.83787        -0.247773     -0.243517      0.132784
O       1.77979      1.87353      9.22501         0.564918      0.102650      0.934274
O       1.80221     13.47298      9.24887         0.005806      0.125383      0.223926
O      13.39918      1.88942      9.21423        -0.032460     -0.100863      0.414319
O      13.41746     13.52046      9.10291        -0.010589     -0.191066      1.206182
O       1.94988      5.70263      0.53100        -0.540013      0.058882      1.155240
O       1.97506      5.62874     13.56074        -0.558726     -0.035916      0.176191
O      13.40691      5.80475      0.53167         0.109603     -0.396346      0.670341
O      13.44954      5.62362     13.69472        -0.302509      0.199313     -0.470467
O       1.84312      5.74132      4.87788         0.264523      0.070207      1.129804
O      13.51699      5.70740      4.91959        -0.634923      0.161971     -0.748610
O       1.90239      5.75244      9.23956        -0.099118     -0.027432      0.688456
O      13.35523      5.82583      9.22848        -0.123331     -0.088603     -1.156483
O       1.85139      9.60682      0.60151        -0.081315      0.093745      0.877039
O       1.94271      9.57076     13.50014        -0.369824      0.050930      2.112995
O      13.24211      9.57665      0.44596         0.445751      0.025059      0.753661
O      13.36465      9.70006     13.67275         0.150915     -0.575665      0.749062
O       1.88109      9.58515      4.87375        -0.073126     -0.072148     -0.046108
O      13.41260      9.68268      4.85461         0.045491     -0.005102      1.009400
O       1.77176      9.49017      9.27903         0.568193      0.073974     -0.487443
O      13.35538      9.40931      9.23948        -0.137208      0.365461     -0.148654
O       5.53492      1.90024      0.49862         0.556219     -0.184880     -0.777362
O       5.75714      1.82525     13.63321        -0.103755      0.252095      0.905655
O       5.64491     13.39578      0.50289         0.389468     -0.223073      0.296230
O       5.78343     13.46872     13.60372        -0.314131      0.108850      0.448344
O       5.82983      1.87610      4.88578        -0.042138      0.014705      0.497657
O       5.79076     13.29692      4.90155         0.035010      0.498647      0.681349
O       5.74343      1.96606      9.22314         0.101578     -0.389917     -0.064120
O       5.70909     13.45202      9.21866        -0.130683      0.053467      0.697856
O       5.68975      5.88530      0.66878         0.101863     -0.298194     -0.124151
O       5.72312      5.58406     13.60346         0.065369      0.252773     -0.446580
O       5.64073      5.71497      4.89299         0.175406      0.045156      0.446505
O       5.77264      5.64760      9.17155        -0.050989      0.431767      1.409823
O       5.70220      9.48401      0.52920         0.049338      0.183531      0.181274
O       5.68751      9.62398     13.62692        -0.043839     -0.076871      0.103953
O       5.66403      9.70700      4.89472         0.153479     -0.648088      0.631660
O       5.63091      9.55441      9.24491        -0.111012      0.109686      0.405988
O       9.43848      1.75710      0.53131         0.854475      0.304810      0.142296
O       9.48107      1.90432     13.63746         0.342400      0.084114     -0.112507
O       9.50126     13.38042      0.55515         0.268305     -0.018400     -0.362122
O       9.60484     13.37098     13.64675         0.048871      0.337202      0.299825
O       9.59753      1.81190      4.84649         0.016368      0.316062     -1.083598
O       9.53332     13.44168      4.90811         0.403109     -0.289135      0.309756
O       9.56225      1.98108      9.21177         0.101250     -0.406413     -0.011458
O       9.53378     13.34306      9.24812         0.116359      0.528952      0.081268
O       9.43297      5.71262      0.49561         0.530362     -0.140915      0.978554
O       9.46072      5.67733     13.65708         0.767184     -0.264623      0.166010
O       9.66632      5.86292      4.77215        -0.114569     -0.325337      0.485024
O       9.54233      5.74619      9.21880        -0.059547     -0.059721      1.464063
O       9.45273      9.59674      0.55346         0.392052     -0.128085     -0.599326
O       9.46536      9.60875     13.59694         0.361450     -0.287000      0.437686
O       9.47307      9.40367      5.01312         0.192715      0.449620     -0.875514
O       9.62110      9.63348      9.29419        -0.121228     -0.471748      0.713555
O       3.80885      1.91657      2.74545         0.665067     -0.619581     -0.023987
O       3.71559      1.89888     15.76043         1.830347     -0.330881      0.267146
O       3.87811     13.52082      2.70134        -0.070438     -0.296629      0.204102
O       3.91091     13.34762     15.73639        -2.275184      0.085626      0.349375
O       0.01480      1.90276      2.72467        -0.345844      0.047454      0.129500
O       0.01930      1.78895     15.70085        -1.104142      0.305214      0.417279
O       0.03271     13.47658      2.75262        -0.605497     -0.584757     -0.084752
O      15.35213     13.39803     15.74173         0.008006     -0.084824      0.071954
O       3.84291      1.93610      7.00281         0.154894     -0.336546      0.525838
O       3.81097     13.48345      7.02351        -0.454016     -0.195480      0.250513
O       0.00124      1.96887      6.97575        -0.527123      0.229153      0.582760
O      15.22403     13.39635      7.01676         2.000002      0.321910      0.420045
O       3.82646      1.92854     11.46389        -0.437936      0.441165     -0.464774
O       3.73799     13.46606     11.36152         1.061849     -0.135701      0.316638
O      15.33959      1.83963     11.48174        -0.066233     -0.159038      0.041262
O      15.33564     13.35812     11.43412        -0.732616      0.465228      0.035657
O       3.73534      5.88053      2.73711         1.410369     -0.321736      0.403270
O       3.72907      5.60638     15.73432         0.867839      0.538583      0.146598
O      15.27895      5.67447      2.70341         0.593156      0.317482      0.060567
O      15.32465      5.78054     15.84231         0.081404     -0.416578     -0.020411
O       3.78411      5.74303      7.15553         0.083342      0.115810     -0.396998
O      15.27089      5.72858      7.10643         1.157843     -0.126765      0.165106
O       3.84884      5.80502     11.48457         0.118954     -0.960881     -0.587020
O      15.29971      5.77268     11.42591        -0.454103     -0.247208      0.033645
O       3.84316      9.42666      2.72675        -1.750910      0.073113      0.242638
O       3.80095      9.57660     15.82040        -0.579678     -0.116153     -0.065510
O      15.33459      9.71515      2.75464        -0.264121     -0.464689     -0.217596
O       0.02049      9.47686     15.81800        -0.848845      0.249795      0.000637
O       3.76026      9.63655      7.00787        -0.061297     -0.099548      0.371263
O      15.30181      9.51577      7.01409         0.209863      0.646742      0.087760
O       3.76674      9.48252     11.43803         0.841657      0.307888     -0.117852
O      15.35784      9.56723     11.39197        -1.495497     -0.090122      0.585440
O       7.75458      1.96672      2.55308        -1.561571     -0.086282      0.583372
O       7.58952      1.79119     15.82876         0.010080      0.528294      0.156297
O       7.69067     13.26484      2.68855        -0.434795      0.375439      0.099356
O       7.59749     13.42229     15.76368         1.591976     -0.049321      0.487031
O       7.69540      1.82890      7.06081        -0.904978      0.572010      0.110240
O       7.65723     13.38375      7.05609         0.230626     -0.059248      0.288885
O       7.72228      1.74621     11.35521        -0.832647      0.276077      0.094439
O       7.56218     13.53043     11.45874         0.489011     -0.258312     -0.368061
O       7.63103      5.56801      2.68406         0.603606      0.619404      0.277839
O       7.61338      5.75257     15.71268         0.113129     -0.495144      0.561007
O       7.67078      5.82987      7.04437        -0.535908     -0.153221     -0.141508
O       7.70527      5.82286     11.45279        -1.071261     -0.320267     -0.100434
O       7.65661      9.77076      2.69850         0.029520     -0.821546      0.224422
O       7.58833      9.45936     15.73516         1.228127      0.370615      0.349429
O       7.59501      9.60551      7.14152         0.227832     -0.377750     -0.117217
O       7.58322      9.52628     11.49777         0.188913      0.462301     -0.349330
O      11.54767      1.85512      2.65114        -0.992995     -0.011706      0.580204
O      11.43583      1.80558     15.70935         1.076927      0.559405      0.335739
O      11.55697     13.40903      2.65201        -0.179611     -0.150682      0.325125
O      11.46947     13.41962     15.84519         0.541932     -0.221356      0.210196
O      11.45077      1.96106      7.04310        -0.355527     -0.223924      0.295882
O      11.57057     13.44801      7.02931        -1.392180     -0.134241      0.009901
O      11.50477      1.88799     11.28650         0.506229      0.505662      0.769073
O      11.49162     13.32897     11.45485         0.461050      0.127021     -0.288523
O      11.51444      5.86687      2.62667        -0.447632     -0.238532      0.412038
O      11.50202      5.52994     15.75012        -0.564963      0.507654      0.271926
O      11.46563      5.69459      7.06642         0.233091      0.291912     -0.096620
O      11.43681      5.70763     11.40388         0.829725      0.037470      0.518190
O      11.47582      9.50221      2.72616        -0.126174      0.310953     -0.020328
O      11.42147      9.48982     15.74411         0.204691      0.637961      0.198278
O      11.45568      9.57968      7.00084         0.651436     -0.090400      0.379760
O      11.49431      9.60986     11.45735        -0.340767     -0.291582      0.337924
O       1.97493      3.81126      2.69504        -0.372637     -0.070849      0.237622
O       1.80322      3.75204     15.78668        -0.198234      0.601814      0.018000
O       1.90842     15.34345      2.81742         0.059017     -0.015273     -0.103831
O       1.91587     15.30646     15.75878         0.032438     -0.885765     -0.067166
O      13.40012      3.82684      2.76995        -0.330512      0.207356     -0.231806
O      13.39577      3.79742     15.83786         0.477931     -1.250417      0.101193
O      13.45147     15.31612      2.66761         0.008101     -0.139131      0.387109
O      13.43160     15.32902     15.84745        -0.128856     -0.080321      0.004436
O       1.89608      3.89756      7.18339         0.221980     -0.465514     -0.169516
O       1.78311      0.00186      7.06649         0.437809     -0.009465      0.213856
O      13.31444      3.85000      6.98464         0.184997     -0.934657      0.699146
O      13.38274      0.04812      7.02295         0.052631     -0.804706      0.259946
O       1.77050      3.84503     11.35344         0.522826     -1.017302      0.219417
O       1.87791     15.33374     11.45546        -0.090537      0.336874      0.058524
O      13.49694      3.78982     11.29916        -0.585891      0.459980      0.504182
O      13.35958     15.27136     11.31392         0.229269      0.716264      0.443986
O       1.76189      7.59116      2.66487        -0.163122      1.796865      0.491948
O       1.91516      7.60236     15.86649        -0.135377      0.420273     -0.596385
O      13.46315      7.79435      2.77349         0.267863     -1.506453     -0.227671
O      13.30135      7.61359     15.80323         0.232821      0.267139     -0.123459
O       1.82409      7.72246      7.07937         0.647312     -0.794998     -0.270790
O      13.45084      7.65496      6.91251        -0.808887      0.184874      0.551587
O       1.81459      7.58760     11.50084         0.325671      0.244035     -0.005334
O      13.41372      7.64680     11.48985        -0.620282      0.028600      0.109599
O       2.00430     11.50229      2.78300        -0.129758     -0.100327     -0.158773
O       1.88198     11.46423     15.69949        -0.024099      0.233451      0.450072
O      13.44297     11.46594      2.69946        -0.212024      0.644603      0.071797
O      13.44787     11.44757     15.80890        -0.278328      0.653200      0.278209
O       1.78959     11.54613      7.12668         0.315530     -0.179030     -0.222565
O      13.41625     11.46335      7.19341         0.167630      0.230506     -0.799685
O       1.89021     11.43783     11.34944         0.216550      1.085688      0.398756
O      13.41409     11.49966     11.28113         0.082498     -0.069821      0.253678
O       5.74432      3.75983      2.65108        -0.247603      0.495796      0.371883
O       5.59793      3.84456     15.86857         0.847508     -0.948918      0.024459
O       5.87730     15.33826      2.68142        -0.060120     -0.232627     -0.027844
O       5.77667     15.30123     15.83478        -0.862578      1.056320      0.068773
O       5.73768      3.82705      6.98091         0.080318     -0.412514      0.350367
O       5.80223     15.27915      7.01649        -0.313491      1.298793      0.322507
O       5.81694      3.80784     11.34573        -0.033510      0.539078      0.299144
O       5.61697      0.09431     11.45219         0.428379     -1.316001     -0.234066
O       5.84476      7.68898      2.79219         0.028308     -0.094252      0.288632
O       5.74847      7.59020     15.77816        -0.758826      0.558930     -0.005690
O       5.66225      7.67319      7.03222        -0.194846     -0.308037     -0.026076
O       5.67079      7.65761     11.51054         0.762502     -0.305908     -0.634270
O       5.68554     11.41835      2.77854        -0.331981      1.242331     -0.431653
O       5.76577     11.45208     15.71147         0.111705      0.425049      0.554090
O       5.72109     11.48831      7.05233        -0.430067      0.111404      0.559304
O       5.63381     11.51767     11.37978         0.181194      0.007887     -0.001513
O       9.64603      3.78365      2.70243         0.306963      0.721583      0.034617
O       9.45411      3.74504     15.92546         0.205415     -0.025548     -0.037111
O       9.60258     15.26417      2.67911        -0.136956      0.346825      0.290343
O       9.58906     15.33937     15.85900        -0.356933     -0.677968     -0.020933
O       9.45267      3.89693      6.92990         0.389202     -0.729189     -0.038009
O       9.47370     15.34914      6.91066         0.695971     -0.218935      0.738427
O       9.51658      3.79039     11.32452         0.194962      0.338412      0.590444
O       9.77219     15.31829     11.37446        -0.727039      0.068867      0.042129
O       9.37703      7.67133      2.74175         0.618259     -0.514680     -0.375933
O       9.58950      7.55889     15.72392         0.070264      0.958754      0.185247
O       9.61852      7.62390      7.13061        -0.205379      0.416387      0.053648
O       9.53156      7.70518     11.38993         0.516497     -0.799005      0.554707
O       9.64087     11.47770      2.68101         0.458560      0.005604      0.424031
O       9.54056     11.51226     15.78340        -0.066851     -0.928859      0.263806
O       9.57369     11.46429      7.17575         0.118729      0.729614     -0.554429
O       9.54922     11.52730     11.37523        -0.450556     -0.518241      0.642044
