  # total energy = -7875.62493340 
CRSYTAL
PRIMVEC
    15.2000000000000000    0.0000000000000000    0.0000000000000000
     0.0000000000000000   15.2000000000000000    0.0000000000000000
     0.0000000000000000    0.0000000000000000    17.000000000000000
PRESSURE
8.3669 8.28816 2.32871 -0.234764 -0.16231 -0.073615
PRIMCOORD
320 1
Pb       3.61785      3.86349      4.32305         0.244965      0.361213     -0.485680
Pb       4.02871      3.93319      0.02879        -0.586598     -0.213776      0.454458
Pb       3.58593      0.25518      4.39812         0.217557     -0.388796     -0.610909
Pb       3.92159     15.15109     16.97266        -0.291255      0.486747      0.163911
Pb       0.00980      3.91499      4.18642         0.044363      0.011493      0.183582
Pb       0.18954      3.81218     16.92085        -0.395867     -0.086028      0.196022
Pb      15.13789      0.33679      4.54143         0.175636     -1.005572     -1.026337
Pb       0.07714     15.05715     16.91850         0.016749      0.370508     -0.306558
Pb       3.99323      3.86918      8.40884        -0.838899     -0.761746      0.157634
Pb       3.85211     14.92931      8.78003        -0.202890      0.806108     -0.603744
Pb       0.13908      3.66661      8.71852        -0.309213      0.149272     -0.635232
Pb      14.86973     15.07587      8.57359         0.687287      0.334802      0.332558
Pb       3.84250      3.73787     12.56841        -0.205887     -0.194949      0.232236
Pb       3.83158     15.19623     12.81626         0.017746      0.250290      0.011111
Pb      15.15678      3.80940     12.70260         0.307804     -0.256999     -0.164696
Pb       0.09005     15.18251     12.89586         0.154435     -0.297796     -0.097073
Pb       3.66285      7.72768      4.36622        -0.134885     -0.405313     -0.522756
Pb       3.84727      7.64984      0.00199        -0.071438      0.128556      0.057923
Pb      15.03749      7.90192      4.32673         0.600035     -0.698961     -0.143407
Pb      15.17058      7.53859     16.81545         0.644740      0.257885     -0.032004
Pb       3.82663      7.58939      8.32187        -0.321262      0.118322      0.475151
Pb      15.03426      7.47292      8.53606         0.149238      0.471721     -0.602608
Pb       3.73626      7.40652     12.56503         0.371334      0.596360      0.920119
Pb      15.16345      7.33879     12.72525        -0.091215      0.255643     -0.340646
Pb       3.46548     11.51478      4.38925         0.321501     -0.035072     -0.668587
Pb       4.10210     11.45289      0.35448        -0.943139     -0.687318     -0.803572
Pb      15.03548     11.55699      4.22854         1.052061     -0.370662     -0.111496
Pb       0.15587     11.40253     16.91097        -0.085252     -0.276018     -0.465449
Pb       3.68229     11.41155      8.56236         0.066880     -0.689630      0.050052
Pb      15.01323     11.41087      8.59577         0.552281     -0.680769     -0.162015
Pb       3.68817     11.28497     12.69759         0.898956     -0.095270      0.549808
Pb      15.16120     11.01069     12.96020         0.242181      0.776214     -0.344455
Pb       7.55518      3.79814      4.23222         0.041172     -0.117696     -0.112984
Pb       7.56088      3.78384      0.10463         0.125004      0.224587     -0.345877
Pb       7.57598     15.11531      4.24059         0.154752      0.719284     -0.012321
Pb       7.65902     15.08562     16.99003         0.302443      0.230849     -0.039283
Pb       7.71243      3.70729      8.33722         0.002597      0.017768     -0.008987
Pb       7.63486     15.13183      8.43778        -0.249656      0.286457     -0.214655
Pb       7.61972      3.85525     12.77445        -0.241668     -0.889927      0.326406
Pb       7.56357     15.10085     12.84251         0.126145      0.807216     -0.200927
Pb       7.77715      7.59549      4.13287        -0.644216     -0.271033      0.435713
Pb       7.56763      7.74231      0.13079        -0.191273     -0.452406     -0.690330
Pb       7.50877      7.65092      8.28752         0.576096     -0.229775      0.114859
Pb       7.40128      7.53482     12.62002         0.773159      0.461863      0.763582
Pb       7.46706     11.36490      4.27337         0.609460      0.138880      0.196489
Pb       7.58014     11.47334      0.02520         0.356013     -0.346689     -0.155152
Pb       7.53163     11.58477      8.58222         0.322014     -0.800961     -0.486510
Pb       7.49171     11.30010     12.70354        -0.001711     -0.266370     -0.059940
Pb      11.42585      3.86971      4.07682        -0.450914     -0.371149      0.057137
Pb      11.36655      3.60240     16.99148         0.001858      0.693582     -0.087462
Pb      11.52408     15.16768      4.11108        -0.387650      0.223512      0.417265
Pb      11.49855     15.13511     16.93272        -0.255000     -0.327761      0.073530
Pb      11.45624      3.80892      8.45494        -0.615046     -0.102355     -0.002748
Pb      11.27562      0.03076      8.40055        -0.018627     -0.135025      0.215960
Pb      11.32228      3.69462     12.81672         0.104365      0.086304      0.002802
Pb      11.42287     15.13640     12.70369        -0.568650     -0.112188      0.385142
Pb      11.49187      7.70971      4.07208        -0.117911     -0.619381     -0.149349
Pb      11.38840      7.53733     16.89833        -0.498706      0.097529      0.374566
Pb      11.25585      7.49161      8.65955         0.124332     -0.169060     -0.493078
Pb      11.33221      7.51194     12.92595        -0.167243     -0.037278     -0.765777
Pb      11.38587     11.28216      4.12651         0.253382      0.839936      0.183215
Pb      11.46408     11.49839     16.76583        -0.255985     -0.251107      0.705839
Pb      11.25549     11.47787      8.52245         0.253297      0.103327     -0.202046
Pb      11.29301     11.27299     12.56780         0.121216     -0.211291      0.486956
Ti       1.83958      1.97663      2.22221         0.392418     -1.123701     -0.980630
Ti       1.90506      1.95911     14.99155         0.388047     -0.819801     -0.263956
Ti       1.96701     13.35610      2.04437        -0.383386      0.850080      1.172929
Ti       2.05012     13.23967     14.94794        -1.571309     -0.741634      0.044084
Ti      13.31487      1.94296      2.15729        -0.387304     -0.407200     -0.062859
Ti      13.29292      1.88856     14.91658         0.459481     -0.676500     -0.148701
Ti      13.47914     13.38134      2.20891        -0.795893     -0.611648     -1.287353
Ti      13.32328     13.28346     14.86276         0.793691     -0.150408      0.072792
Ti       1.86886      1.86572      6.69908         0.309312      1.180646     -0.215688
Ti       1.85269     13.34529      6.61586         0.029081     -0.608245     -0.968240
Ti      13.26425      1.88914      6.55795        -0.727250      0.475205     -1.222763
Ti      13.36774     13.29568      6.39473        -2.027884     -0.914248     -0.378265
Ti       1.88530      1.80588     10.70256         1.013805      0.345576     -0.386565
Ti       1.95215     13.22119     10.85062        -1.175888     -0.366484      0.619101
Ti      13.26201      1.76985     10.84023        -0.078461      1.392637     -0.539526
Ti      13.37256     13.20731     10.87479         0.481879     -0.362189      0.292070
Ti       1.82686      5.81282      2.24638         0.885123      0.268781      0.651423
Ti       1.98800      5.67228     14.90519        -0.237426      0.091796     -0.527918
Ti      13.31570      5.71468      2.05323        -1.560677      0.325101     -0.366395
Ti      13.19684      5.57338     15.02632         0.647067      0.255134     -0.255573
Ti       1.84537      5.66757      6.57011        -0.901185     -0.385012     -0.704529
Ti      13.26887      5.60190      6.27192         0.052281      1.086135      1.044118
Ti       1.93408      5.63003     10.55229        -0.635551     -1.053497      0.284347
Ti      13.21561      5.57694     10.74564         0.021011      0.215168      2.198079
Ti       1.82687      9.57258      2.20490         0.259209     -0.337541     -2.061940
Ti       1.96189      9.41882     14.95234         0.340855      0.071463      0.918108
Ti      13.30683      9.61163      2.07049        -0.316425     -0.811718     -0.511328
Ti      13.19873      9.42148     15.03530         0.505934      0.584322     -0.252137
Ti       1.82003      9.49390      6.60329        -1.271053     -0.027175      0.943334
Ti      13.18407      9.46856      6.58049         1.527959     -0.497349     -0.830839
Ti       1.91007      9.33875     10.76690        -0.037182      0.617368     -1.700823
Ti      13.29084      9.39055     10.80969        -0.186025     -0.670418     -0.582089
Ti       5.66845      1.92708      2.27897        -0.676473      0.271017     -0.023192
Ti       5.68552      1.90754     15.05591         0.893709     -0.420585     -0.954300
Ti       5.74900     13.34355      2.38143        -1.161096      0.349371     -0.193090
Ti       5.73128     13.28631     14.93524        -0.004831     -0.550618     -0.972800
Ti       5.64861      1.85913      6.39778         0.532308     -0.473970     -0.438263
Ti       5.64925     13.31559      6.44115         0.805892     -0.067785      1.077689
Ti       5.71993      1.82836     10.60436        -0.077709      0.623476      0.321106
Ti       5.73386     13.28332     10.77500        -0.095071     -0.750496      0.667453
Ti       5.62840      5.80073      2.35264        -0.866045     -0.503675     -0.185861
Ti       5.71438      5.72032     14.99692         0.553503      1.016632     -1.183700
Ti       5.72162      5.67713      6.37394         0.044522     -0.106409     -0.924001
Ti       5.75012      5.64987     10.59561        -0.386423     -0.338996     -0.729061
Ti       5.67893      9.54809      2.40288        -1.054652     -1.983359      0.356126
Ti       5.66673      9.50730     14.93517         0.177866     -0.418933     -0.969476
Ti       5.67995      9.59100      6.50745         0.046052     -0.172864     -0.884821
Ti       5.70060      9.48975     10.63280         0.053009      0.673995      0.361836
Ti       9.48460      1.85830      2.19807        -0.178525     -0.299197      1.234361
Ti       9.48039      1.84353     15.09911        -0.317222     -0.200506     -1.072637
Ti       9.59985     13.35201      2.30870        -0.125674     -1.438350     -1.440530
Ti       9.50578     13.23721     14.89644         0.133289      0.829368      0.208133
Ti       9.47884      1.78088      6.28639        -0.305489      1.407522     -0.188904
Ti       9.54196     13.22824      6.37157        -0.234298     -0.096377     -0.798118
Ti       9.42880      1.82127     10.76758         0.088882     -0.296722     -0.379321
Ti       9.47594     13.22205     10.83468         0.044320     -0.041299      0.053413
Ti       9.44882      5.72106      2.11834         0.338981     -0.264364     -0.831312
Ti       9.39515      5.71317     15.04816        -0.742473      0.010652     -0.630254
Ti       9.59082      5.66407      6.36606        -0.762245     -0.743566      0.403935
Ti       9.47468      5.59557     10.85895         0.842561      0.766216     -1.512339
Ti       9.44967      9.59291      2.20231         0.174200     -0.205283      0.053710
Ti       9.34127      9.53375     14.92051         0.747483     -0.589581      0.135827
Ti       9.57215      9.45533      6.37386        -1.371106      0.185573      0.982728
Ti       9.45078      9.35662     10.62307        -0.324785      0.260632      1.017571
O       1.78689      1.84185      0.45978         0.293945      1.026964     -1.333365
O       1.78337      2.01366     13.21146         0.406819     -0.195132     -0.184798
O       2.05133     13.20531      0.26095        -0.336025     -0.000765     -0.734496
O       2.02947     13.11343     13.18173        -0.223664      0.662844     -1.217676
O      13.27633      2.01468      0.38436         0.059068     -0.370232     -0.105064
O      13.36595      1.88406     13.07630         0.039529     -0.460071      0.333470
O      13.50795     13.25503      0.36406        -0.583581      0.264972      0.483711
O      13.33488     13.44560     13.08242         0.072606     -0.313248     -0.361110
O       1.65732      1.82193      4.79357         0.435653      0.242845     -0.012509
O       1.74900     13.31607      4.78970         0.600298     -0.208721      1.005023
O      13.31401      1.81695      4.72059         0.176422      0.070130      0.048425
O      13.40910     13.20521      4.59837        -0.335623      0.607053      0.079075
O       2.04938      1.91192      8.90645        -0.585838     -0.443746     -0.443723
O       1.98040     13.26568      9.06242         0.255850      0.358135     -0.765690
O      13.16670      1.88661      9.03440         0.273331     -0.191476     -1.049167
O      13.29283     13.12635      9.08275         0.025538      0.468451     -0.801554
O       2.05817      5.81758      0.49929        -0.529767     -0.140728     -0.629311
O       2.10933      5.59806     13.10539        -0.813621      0.183791      0.136689
O      13.29180      5.61449      0.22172         0.036847      0.228261      0.437426
O      13.26177      5.51923     13.22989        -0.192007      0.548461     -0.164387
O       1.82059      5.64709      4.77210        -0.492648     -0.346037     -0.519747
O      13.23194      5.61249      4.50660        -0.043207      0.176986     -0.534839
O       2.02535      5.61071      8.76415        -0.641516      0.171917      0.322108
O      13.15421      5.56454      9.04528        -0.155762     -0.007155     -2.319322
O       1.83263      9.57250      0.31038         0.144884     -0.421517      1.529582
O       1.95891      9.32126     13.16873        -0.233235     -0.103217     -1.055009
O      13.17915      9.54550      0.28506         0.514843     -0.099977      0.031021
O      13.23541      9.44906     13.24717         0.074504     -0.421336     -0.879257
O       1.75088      9.47484      4.82873         0.088500      0.634011     -0.912989
O      13.12376      9.40523      4.68052         0.294344      0.755521      0.433149
O       1.74510      9.34238      8.95126         0.382191      0.053881      0.532084
O      13.26327      9.28545      8.99436         0.280610      0.525214      0.003757
O       5.60982      2.01571      0.46072        -0.208720     -0.602815     -0.330959
O       5.75083      1.79425     13.27462         0.039930      0.130191     -0.361896
O       5.52749     13.24166      0.55657         0.813994      0.236317     -0.579105
O       5.79388     13.29655     13.11179        -0.103217      0.222902      0.887875
O       5.69258      1.88549      4.57899        -0.099350     -0.107296     -0.140375
O       5.68600     13.36212      4.70413        -0.277268     -0.561904     -1.626291
O       5.71806      1.85082      8.83350        -0.146396     -0.194636     -0.340963
O       5.78192     13.21244      8.97625        -0.612639      0.465071     -0.983060
O       5.57766      5.86658      0.50843        -0.151167     -0.383222     -0.143185
O       5.77425      5.74804     13.13104        -0.032009     -0.225180      0.311514
O       5.58752      5.46499      4.53124         0.626877      0.482835      1.761636
O       5.56194      5.64171      8.76260         0.867925      0.242078      0.948965
O       5.74888      9.45463      0.63555        -0.286203      0.359465     -1.151787
O       5.76630      9.41925     13.13518         0.059637      0.156678     -0.182913
O       5.49952      9.58309      4.72001         0.213279      0.238129     -0.065778
O       5.66093      9.54521      8.88408         0.343016     -0.182250     -1.845734
O       9.63915      1.62650      0.44815        -0.378476      0.343864     -1.253946
O       9.48143      1.82598     13.31497        -0.130791     -0.035123     -0.671915
O       9.55329     13.43061      0.44759        -0.120999     -0.492051      0.661790
O       9.43296     13.12820     13.13033         0.131930      0.335176     -1.356207
O       9.46392      1.83308      4.51608        -0.112111      0.248923      0.027474
O       9.55136     13.10430      4.58089        -0.203144      0.563231      0.667436
O       9.43653      1.84419      8.96528         0.027608     -0.277344     -0.033882
O       9.38923     13.27323      9.06581         0.425427      0.293426     -1.349564
O       9.29903      5.78666      0.32881         0.629740     -0.289054      0.456945
O       9.32152      5.67451     13.16854         0.295824     -0.269284      0.449417
O       9.55385      5.54787      4.61199        -0.157098      0.229106     -1.227250
O       9.53269      5.75423      9.00377        -0.030473     -0.482982      0.463101
O       9.32305      9.57840      0.46612         0.150331      0.104133     -1.115338
O       9.36069      9.56863     13.14674         0.293134     -0.060287     -0.122225
O       9.69829      9.51208      4.59712        -0.470383     -0.150982     -0.031104
O       9.42794      9.22561      8.86954         0.258936      0.091785     -1.011757
O       3.66524      1.85889      2.71637         0.918750      0.402989      0.090876
O       3.84666      1.80491     15.27181        -1.101571      0.258701      0.371003
O       3.73877     13.12668      2.54654         0.392409      0.184724      0.556459
O       3.84614     13.36101     15.19229         0.847446      0.045488      0.546349
O      15.15014      1.87609      2.53212        -0.540838      0.244421      0.606485
O      15.19273      2.05771     15.27706        -0.057819     -0.217866      0.168692
O       0.08075     13.32814      2.51826        -0.314121      0.174815      0.106894
O       0.02957     13.24995     15.16639         0.074021     -0.086792      0.354828
O       3.73182      1.89953      6.58865         0.588204     -0.309705      0.135566
O       3.77861     13.18534      6.90580        -0.185990      0.621582     -0.137771
O      15.09250      1.87823      7.00179         0.350231     -0.100098      0.078045
O      15.13900     13.26360      6.84930         0.760635      0.341347      0.730555
O       3.78438      1.73556     11.07046         0.881473     -0.076676      0.273053
O       3.92019     13.41914     11.21974        -1.753786      0.058385     -0.568634
O       0.09639      2.09883     10.95616        -2.104692     -0.570722      0.165824
O       0.09022     12.99942     11.02410        -0.001596      0.747750      0.423235
O       3.64508      5.76001      2.74450         0.631608     -0.148380     -0.209653
O       3.87108      5.81898     15.17689         0.114170     -0.457900      0.786327
O      15.05954      5.60540      2.38819         1.756343      0.020578      0.410205
O       0.07119      5.61791     15.10691        -1.131737      0.160523      0.694802
O       3.74060      5.72736      6.72741         1.515618     -0.409907     -0.096005
O      15.03490      5.47618      6.81687         0.728815      0.171702      0.309632
O       3.75104      5.69267     11.00922         2.254701     -0.041990     -0.500428
O      15.16217      5.61261     10.91357         0.436554     -0.424347      0.449375
O       3.62315      9.42625      2.54914         1.101270      0.719888      0.420254
O       3.85885      9.41636     15.15320        -1.103633     -0.097138      0.726774
O      15.15158      9.48039      2.42409        -1.167209      0.110072      0.571857
O      15.17658      9.50206     15.27531        -0.458170     -0.762466     -0.045190
O       3.70316      9.47882      6.82975         0.543292      0.093410      0.226425
O      15.11117      9.50895      6.91232        -0.471269     -0.215137     -0.002679
O       3.85983      9.22151     10.90349        -1.127113     -0.001484      0.512636
O       0.06302      9.28946     11.18415        -1.071089      0.492283      0.267848
O       7.54301      1.77281      2.44549        -0.062005      0.216100      0.315348
O       7.62002      1.79543     15.45648        -0.254587      0.497470      0.401240
O       7.57839     13.25488      2.54503        -0.477206      0.345558      0.317949
O       7.65476     13.19670     15.31128        -1.378725      0.185623      0.364766
O       7.59464      1.86249      6.59952        -0.486165      0.038495      0.627129
O       7.65877     13.16299      6.76271        -1.264146      0.572278      0.176157
O       7.56964      1.96550     11.07384         0.216322     -0.048954      0.132675
O       7.54775     13.07806     11.03357         1.184760      0.132970      0.477912
O       7.51611      5.63578      2.51643         0.356112      0.492457      0.570716
O       7.55103      5.64247     15.51087        -0.384289     -0.214464     -0.418478
O       7.62031      5.62860      6.65102        -1.028177      0.184776      0.204057
O       7.61426      5.39884     11.00960        -1.394721      0.546413     -0.245733
O       7.55018      9.42457      2.68724         0.120724      0.092099      0.427526
O       7.53549      9.62808     15.38291         0.535108      0.305701      0.287889
O       7.60305      9.53784      6.59829         0.309186     -0.548414      0.275181
O       7.60546      9.69470     10.93443        -0.486948     -0.664335      0.263839
O      11.32139      1.74011      2.53873         1.280108      0.680976      0.117063
O      11.43656      1.68864     15.23701        -0.132793      0.552856      0.458988
O      11.45581     13.31369      2.51087        -0.054313     -0.547143      0.147061
O      11.40147     13.28593     15.19475         0.776655      0.410611      0.276086
O      11.34660      1.67966      6.66683        -0.369048      0.161728      0.789001
O      11.41772     13.34233      6.79965        -0.619658     -0.256503      0.341371
O      11.37475      1.66807     11.05039         0.149597     -0.240324      0.497746
O      11.44869     13.31049     11.04321        -0.595518     -0.218150      0.414242
O      11.31801      5.72130      2.31485         0.214879     -0.267964      0.433413
O      11.26070      5.65868     15.35375         0.837708      0.491334     -0.136647
O      11.40364      5.70452      6.79440         0.081312     -0.307035      0.298777
O      11.34157      5.74796     11.18033        -0.229632     -0.171130      0.286057
O      11.34187      9.58201      2.46312         0.757030     -0.172316      0.026403
O      11.30598      9.36403     15.32048        -0.158936      0.501893     -0.039649
O      11.37804      9.43332      6.93628        -0.500993      0.277049      0.100293
O      11.36427      9.36236     11.05932         0.195547      0.037061      0.181112
O       1.86323      3.84345      2.58517        -0.459410      0.222583      0.063414
O       1.98871      3.84715     15.40785         0.505578     -0.658517      0.088094
O       1.88489      0.04053      2.21784         0.252676     -1.328945      1.111474
O       1.87163     15.17472     15.10128        -0.282901      0.559548      0.502997
O      13.13603      3.81251      2.52855         0.315927     -0.517114     -0.346432
O      13.07800      3.72801     15.26055         0.306403     -0.118165      0.184591
O      13.21658     15.19303      2.46279         0.542546      0.862038      0.128101
O      13.40378     15.17649     15.28253         0.121588      0.394865      0.006278
O       1.87333      3.75958      6.86755        -0.172652     -0.273742      0.218576
O       1.84376      0.03201      6.87233        -0.023437     -1.736967      0.453192
O      13.05271      3.70800      6.62673         0.000145      0.545202      0.563493
O      13.24983     15.13279      6.80762         0.529800      0.180120      0.581883
O       1.99770      3.72614     10.98101         0.174484      0.927700      0.069643
O       1.82090     15.14366     11.10870        -0.108670     -0.269466      0.372691
O      13.10286      3.71693     11.13009         0.324927     -0.174638      0.039339
O      13.53707     15.13680     10.95872         0.157842     -0.268139      0.490478
O       1.74353      7.66456      2.72146        -0.207314     -0.385339     -0.270528
O       1.98537      7.50231     15.34620        -0.898959      0.744813      0.111223
O      13.23839      7.61307      2.42919        -0.035242      0.326512     -0.052950
O      13.15798      7.50405     15.20457         0.644523      0.114623      0.505748
O       1.73505      7.52772      6.75800         0.029643      0.763368      0.652964
O      13.32290      7.53862      6.57611        -0.026783     -0.000310      0.703772
O       1.82543      7.42444     10.97951         0.212845      0.561138      0.518396
O      13.24675      7.48436     11.09687         0.480535      0.425715      0.638994
O       1.75349     11.47622      2.53424         0.258098     -1.180199      0.400905
O       1.88627     11.27477     15.10627         0.156076      0.882634      0.489973
O      13.35528     11.44841      2.48239        -0.258734     -0.729695      0.262536
O      13.22939     11.38795     15.08999        -0.031392     -0.201379      0.500759
O       1.79962     11.42808      7.05550         0.255069     -0.190731     -0.547322
O      13.29063     11.41602      6.81349        -0.482759     -0.495792      0.185815
O       2.10544     11.27284     11.05477        -0.123587     -0.129528     -0.230213
O      13.40478     11.26091     11.16017        -0.775360      0.013720      0.036481
O       5.56872      3.84370      2.37590         0.030339     -0.676283      0.575455
O       5.70048      3.81434     15.26615        -0.050397      0.228028      0.519522
O       5.56098     15.18586      2.47194         0.071676     -0.206535      0.452735
O       5.76930     15.16852     15.26518        -0.003182     -0.788916      0.727184
O       5.73581      3.66192      6.77646        -0.263720      2.297429      0.030690
O       5.68680     15.17558      6.73369        -0.085570     -0.519959      0.618227
O       5.60859      3.72952     10.93099        -0.294304      1.024975      0.090330
O       5.83673     15.18824     10.90589         0.023417     -0.314326      0.553553
O       5.49525      7.62820      2.75215         0.919199     -0.253012      0.185053
O       5.80308      7.67037     15.36933         0.104482     -1.002035      0.123923
O       5.71731      7.58621      6.66079        -0.306329     -0.418326      0.218324
O       5.92836      7.60818     10.76151        -0.048865     -2.252332      0.502264
O       5.65815     11.32966      2.58122        -0.107116      1.904944      0.422571
O       5.60221     11.39520     15.33627         0.308414      0.717256      0.487588
O       5.70997     11.41899      6.86285        -0.385770      0.030640     -0.107267
O       5.50130     11.36634     11.05978         0.226641     -0.160203      0.031800
O       9.40843      3.73559      2.30714         0.179469      0.318340      0.336850
O       9.50419      3.78190     15.25508        -0.121041     -0.788139      0.779439
O       9.44902     15.10328      2.72083        -0.189866      1.059868     -0.032483
O       9.48437     15.10130     15.28997        -0.204953      0.249035      0.159181
O       9.38923      3.73659      6.77636         1.156166     -0.174154     -0.148448
O       9.26307     15.16265      6.72458         1.098194     -0.946853      0.181796
O       9.65602      3.66457     11.15476        -0.334694      0.635185     -0.045641
O       9.36854     15.10732     11.13547         0.029710      0.123879      0.225878
O       9.38334      7.60715      2.38372         0.203382      0.047029      0.813674
O       9.29846      7.61059     15.16772         0.397194      0.260392      0.508904
O       9.50815      7.52368      6.61704        -0.281600      1.071922      0.282347
O       9.34470      7.52346     11.14397         0.075376     -0.001014     -0.116960
O       9.28578     11.41373      2.58491         0.715595     -0.164082     -0.060450
O       9.55777     11.42090     15.25041         0.054300     -1.047820      0.769795
O       9.47552     11.38740      6.82279         0.933476     -0.766535      0.219402
O       9.53569     11.25962     10.83405         0.896652      1.287212      0.640096
