  # total energy = -7877.88195501 
CRSYTAL
PRIMVEC
    15.2000000000000000    0.0000000000000000    0.0000000000000000
     0.0000000000000000   15.2000000000000000    0.0000000000000000
     0.0000000000000000    0.0000000000000000    17.000000000000000
PRESSURE
7.23454 7.63295 3.53069 0.205013 -0.126836 -0.000433
PRIMCOORD
320 1
Pb       3.91621      3.73677      4.20412        -1.082314     -0.141459     -0.165517
Pb       3.57024      3.66531      0.00515         0.413408      0.501056     -0.122159
Pb       3.96391     14.97341      4.19302        -0.474399      0.337476      0.112640
Pb       3.72950     15.15399      0.01153         0.366583      0.055065     -0.865037
Pb      15.16485      3.70146      4.29066        -0.259461     -0.134255     -0.599890
Pb      15.06370      3.82540     16.96284         0.128068      0.213999      0.196784
Pb      15.18785     14.98036      4.10193        -0.425859      0.475863     -0.194295
Pb      15.14135      0.04834      0.01139        -0.183626     -0.477740      0.150267
Pb       3.54877      3.75994      8.55227         0.205315      0.418092     -0.112779
Pb       3.75951      0.16866      8.21133         0.269371     -1.097474      0.856082
Pb      15.02563      3.82244      8.34365         0.756758      0.136698      0.028432
Pb       0.19349      0.09648      8.42682        -1.001244     -0.321263     -0.146872
Pb       3.75027      3.77500     12.85372         0.206389      0.183106     -0.473384
Pb       3.79489     15.13155     12.65021        -0.059105     -0.077218      0.552185
Pb      15.19256      3.68771     12.81885        -0.428731      0.568719      0.177644
Pb      15.09075     15.07357     12.58641         0.217962      0.697960      0.880049
Pb       3.85623      7.46545      4.15251        -0.800616      0.804044      0.252734
Pb       3.72447      7.48743      0.06894         0.375452     -0.011596     -0.440052
Pb       0.01241      7.36524      4.21029         0.119229      0.667689      0.306704
Pb       0.04251      7.59403      0.19173        -0.383945     -0.455229     -0.934799
Pb       3.72724      7.49982      8.57932         0.199432      0.158076     -0.174149
Pb       0.04604      7.68626      8.50901         0.086092     -0.462924     -0.600986
Pb       3.80027      7.76798     12.90732        -0.308747     -0.472425     -1.219074
Pb      15.16954      7.76302     12.87970        -0.108178     -0.451071     -0.719258
Pb       4.02684     11.33613      4.15792        -0.617750      0.396877      0.365909
Pb       3.62757     11.37238     16.70433         0.809488      0.479948      0.882946
Pb       0.01356     11.25040      4.25111         0.072958      0.396771     -0.093085
Pb      15.09431     11.38138      0.05781         0.077742      0.364435     -0.932737
Pb       3.82015     11.35422      8.34359        -0.165826      0.289945      0.858120
Pb       0.03688     11.34773      8.45542        -0.057976      0.269626     -0.450752
Pb       3.89010     11.46744     12.66414        -0.244117      0.756363     -0.193705
Pb       0.01119     11.61049     12.57860         0.063195     -0.765556      0.512136
Pb       7.64239      3.85775      4.30110        -0.174250     -0.251874     -0.497683
Pb       7.60559      3.77657     16.95531        -0.535590      0.195528     -0.719817
Pb       7.57963      0.07871      4.25302         0.399989     -0.710034      0.132988
Pb       7.49833      0.02837     16.96942        -0.062696     -0.363771     -0.376705
Pb       7.39713      3.81720      8.58942         0.220990      0.310964     -0.175828
Pb       7.51222      0.04086      8.55351         0.395671     -0.554143     -0.423411
Pb       7.59114      3.66351     12.66884        -0.321228      0.245093      0.166452
Pb       7.62309      0.00428     12.70265        -0.208333     -0.516075     -0.060666
Pb       7.37610      7.57119      4.29322         1.174343      0.654736      0.161398
Pb       7.69302      7.37698     16.97556        -0.636164      0.712287     -0.080582
Pb       7.60577      7.52250      8.63441        -0.142260     -0.056953     -0.627895
Pb       7.76608      7.59018     12.84830        -0.126394     -0.378556     -0.866133
Pb       7.68294     11.45574      4.16382        -0.105159      0.064435     -0.114305
Pb       7.53030     11.28986     16.96748         0.202843      0.362651      0.512534
Pb       7.62569     11.23435      8.40763         0.253132      0.521076      0.380802
Pb       7.67720     11.38295     12.83186         0.000831      0.555802     -0.890752
Pb      11.40103      3.74747      4.35560        -0.053162     -0.447615     -0.462781
Pb      11.41010      3.96297     16.95794        -0.213499     -0.919038      0.110632
Pb      11.27388     15.19980      4.28806         0.424803     -0.168022     -0.325995
Pb      11.25586      0.04254      0.00191         0.626924      0.013652     -0.134519
Pb      11.33018      3.74520      8.49004        -0.154330      0.430504     -0.255532
Pb      11.42814     15.13569      8.67534        -0.103857     -0.171792     -0.840893
Pb      11.47606      3.79640     12.66414        -0.264566      0.122330      0.285096
Pb      11.31536      0.01126     12.79521         0.420536     -0.375807     -0.770818
Pb      11.35195      7.45630      4.34638        -0.451075      0.664240     -0.121228
Pb      11.39665      7.58315      0.11328         0.090121      0.190771     -0.524730
Pb      11.49244      7.69277      8.38407        -0.776852     -0.505240      0.269297
Pb      11.45254      7.65966     12.66281        -0.096179     -0.179278      0.248454
Pb      11.42889     11.51477      4.28377        -0.483066     -0.236312     -0.435694
Pb      11.32885     11.21500      0.11652        -0.180497      0.575228      0.234531
Pb      11.38167     11.30726      8.47995         0.127071      0.346305     -0.300439
Pb      11.49599     11.36301     12.97311         0.161649      0.062791     -1.055038
Ti       1.84156      1.83093      2.23956        -0.185149      1.013777      1.591682
Ti       1.76343      1.86617     14.94262         0.808281      0.096355     -0.122675
Ti       1.89933     13.23498      2.17486         0.223196      0.238131      1.080144
Ti       1.78930     13.32434     14.92120         0.529888     -0.044031     -1.390806
Ti      13.24075      1.86053      2.24761        -0.204469     -0.080786      0.006946
Ti      13.23210      1.89208     15.00736         0.006495      0.281295      1.049411
Ti      13.29063     13.21010      2.04963        -0.704741      1.495874      1.080200
Ti      13.21892     13.36218     14.97193         1.158598     -0.698634      1.696826
Ti       1.84911      1.88469      6.21826        -0.520802      1.072906     -0.102777
Ti       1.95517     13.26875      6.41566        -0.379240     -0.353995      0.264090
Ti      13.15975      1.82268      6.52814         1.108965     -0.278038     -0.106099
Ti      13.32822     13.27830      6.49480         0.130426     -0.164737      2.177140
Ti       1.77031      1.92934     10.80755         0.649201     -0.449185      0.291840
Ti       1.99136     13.35658     10.58982         0.098720     -0.291390      1.263027
Ti      13.27244      1.98618     10.64370        -0.018107     -1.308462     -0.285356
Ti      13.31953     13.29415     10.59464        -0.668170     -0.279122      0.578981
Ti       1.84075      5.65773      2.23253        -0.257433     -0.992610      0.953287
Ti       1.83195      5.74769     14.90248        -1.315123     -0.466032      0.847509
Ti      13.16269      5.64656      2.30244         0.475782     -0.261165     -0.428994
Ti      13.22847      5.72936     14.92970         0.693746     -0.234463      0.248323
Ti       1.92914      5.62488      6.41290        -1.841270      0.761333     -0.146259
Ti      13.13724      5.68687      6.45222         1.129603      0.325001      0.892404
Ti       1.80777      5.65083     10.77898         0.630878      1.594914      0.280089
Ti      13.32598      5.74743     10.66931        -0.739404      0.257875     -0.790211
Ti       1.93561      9.54754      2.17442        -0.176929     -0.466458      1.596400
Ti       1.85246      9.46260     14.91137        -0.411803      1.111649      0.237898
Ti      13.31145      9.46685      2.30857        -1.151369      0.023861      0.495988
Ti      13.31886      9.48556     15.06570        -0.343677     -0.391364     -0.397524
Ti       1.93490      9.42856      6.43214        -0.898468     -0.592739     -0.450202
Ti      13.28955      9.50534      6.37580        -0.100549      0.100752      0.724025
Ti       1.97338      9.55211     10.79020        -0.794230     -0.383789      0.122130
Ti      13.31681      9.48100     10.70992        -0.677417      0.830992      0.983874
Ti       5.63688      1.95370      2.22658         0.264792     -0.089891     -0.862323
Ti       5.69356      1.91025     14.97225        -0.593693     -0.028218      0.208200
Ti       5.73505     13.39472      2.08605         0.129506     -1.964288      0.097500
Ti       5.73641     13.25962     14.86686        -0.616676      1.220738      1.084132
Ti       5.64084      1.96520      6.43735         0.570679     -0.847894      0.300678
Ti       5.80119     13.26311      6.54738        -0.452345      0.890873     -0.226807
Ti       5.57534      1.87526     10.67308         1.035849      0.271465      1.104879
Ti       5.84503     13.33311     10.62772        -0.626236     -0.941377      0.107525
Ti       5.65061      5.72623      2.21366        -0.366648     -0.917074     -2.474217
Ti       5.55855      5.78501     14.82304         1.579916     -2.010824      1.034927
Ti       5.58592      5.69754      6.46583         0.874698      0.828355      1.015883
Ti       5.65668      5.72960     10.75922        -0.596222     -0.300629      0.524553
Ti       5.66565      9.48459      2.14640         1.239233      0.798071      0.632571
Ti       5.64632      9.45468     14.92256         0.499571      0.768800      0.903071
Ti       5.64370      9.49389      6.46567         0.656515     -1.463219     -0.625183
Ti       5.72670      9.51002     10.78329        -0.053671      0.225080      0.375332
Ti       9.43711      1.87929      2.14112         0.465193     -0.142458      0.241770
Ti       9.47825      1.88894     14.94173        -0.083689      0.603298      0.870839
Ti       9.51242     13.36527      2.12905         0.160136     -0.939401      1.322607
Ti       9.54451     13.31812     14.96644        -1.178143     -0.136802      0.197273
Ti       9.35285      1.88715      6.57256         1.188280     -0.372343      1.307453
Ti       9.55967     13.32973      6.52569        -0.339483     -0.541623      0.656116
Ti       9.47037      1.78102     10.68126         0.147604      0.173910      0.614908
Ti       9.62111     13.16985     10.62500        -0.329263      1.179936     -0.227903
Ti       9.40674      5.67358      2.27657        -0.021874      0.056196      0.131511
Ti       9.43451      5.71614     14.88300        -0.014550     -0.860827     -0.092432
Ti       9.36237      5.65172      6.50754         0.728042      0.999888     -0.080623
Ti       9.47233      5.59957     10.72948         0.524872      1.251014      0.438071
Ti       9.51495      9.44817      2.47181        -0.288629      0.711419     -0.131666
Ti       9.46036      9.54054     15.04092         1.150055      0.097270      0.186530
Ti       9.48047      9.49144      6.48376         0.044273     -0.296619     -1.026814
Ti       9.49569      9.48083     10.71782         1.267946     -0.528467     -1.294744
O       1.90081      1.97687      0.49654         0.115264     -0.130868     -1.525033
O       1.67659      1.79586     13.12963         0.512883      0.813411      0.833861
O       1.83129     13.19391      0.45364         0.420715     -0.097439     -1.559794
O       1.75492     13.38702     13.06238         0.222743     -0.208742      1.523167
O      13.21298      1.96069      0.47995         0.042340      0.080334     -0.463657
O      13.31070      1.95881     13.27593        -0.152102     -0.059429     -1.207542
O      13.23116     13.28650      0.30558         0.184956     -0.526470     -0.693424
O      13.41259     13.40395     13.24540        -0.392070     -0.337108     -1.048296
O       1.91637      1.93317      4.44099        -0.366977     -0.302709      0.941245
O       1.91784     13.34701      4.63467        -0.137790      0.011917      0.102048
O      13.24298      1.88006      4.74959        -0.009326     -0.053125     -0.100628
O      13.47679     13.26979      4.77820        -0.212814      0.178448     -1.462295
O       1.73509      2.01365      9.04029         0.595519     -0.062641     -0.400690
O       1.87180     13.41168      8.86036         0.369702     -0.272699     -1.149229
O      13.39105      1.91059      8.83950        -0.543555      0.139288      0.894206
O      13.30825     13.23224      8.81764        -0.108475      0.170077      0.963335
O       1.88505      5.71350      0.48390        -0.017930      0.342062     -1.205306
O       1.76949      5.65427     13.16344         0.206523      0.231738     -0.893360
O      13.20605      5.55621      0.50980        -0.349369      0.357504     -0.490919
O      13.36901      5.79328     13.17018        -0.359991     -0.425674     -0.151016
O       1.92550      5.71832      4.61557        -0.015341      0.000056     -0.031779
O      13.11018      5.66842      4.65283         0.104113      0.088587     -0.116577
O       1.81451      5.67210      8.98171         0.132853     -0.026957     -0.259097
O      13.13626      5.75895      8.80406         0.596159     -0.016591      1.309449
O       1.89688      9.50796      0.40657        -0.121921     -0.040771     -0.047102
O       1.88172      9.46383     13.13663         0.124664      0.312457     -0.182802
O      13.26202      9.52464      0.53137         0.240083     -0.077316     -1.428499
O      13.25647      9.35096     13.29572        -0.110853      0.302768     -0.750282
O       1.79596      9.34936      4.67949         0.244428      0.310336     -0.331111
O      13.25841      9.47480      4.63670         0.369653      0.209223     -1.324023
O       1.87566      9.46306      9.00259         0.113573     -0.084662     -0.447954
O      13.22467      9.36445      8.95936         0.441102      0.481957     -0.564676
O       5.65830      1.98401      0.40773        -0.259469     -0.044132      0.426060
O       5.70875      1.79581     13.21282         0.207158      0.324307     -0.746304
O       5.77736     13.35477      0.32689        -0.500580     -0.154749     -0.012068
O       5.73855     13.32853     13.08895         0.055658     -0.272724      0.464420
O       5.63926      1.87324      4.65164         0.440779     -0.001087      0.064665
O       5.75511     13.23634      4.74160        -0.349923      0.617244     -0.379324
O       5.57208      1.83882      8.88600        -0.086960      0.377060      0.270313
O       5.72546     13.26718      8.84176         0.032750      0.105832      0.150481
O       5.61098      5.73204      0.31719         0.216231      0.132171      1.684848
O       5.72601      5.87732     13.05540        -0.199491     -0.569042     -0.084907
O       5.69862      5.83071      4.68231        -0.618083     -0.539613     -0.150429
O       5.69591      5.67701      8.97945        -0.140047     -0.044413     -0.551358
O       5.51908      9.44056      0.40583         0.569528     -0.086414     -0.508482
O       5.57499      9.66205     13.13416         0.766456     -0.651941      0.516722
O       5.68739      9.35868      4.64932        -0.358648      0.332843      1.150840
O       5.62320      9.54931      9.01900         0.380293     -0.101221     -0.213148
O       9.40594      1.76547      0.33670         0.208219      0.316627      1.157800
O       9.49440      1.87116     13.16254        -0.227611      0.180902     -0.325512
O       9.50289     13.40717      0.37794         0.036379      0.123684     -0.483699
O       9.51332     13.16880     13.19482         0.046526      0.053993     -0.314121
O       9.39560      1.87332      4.84111        -0.205343      0.233096     -1.394320
O       9.57128     13.28013      4.73650        -0.240172      0.104099     -0.075296
O       9.51846      1.72989      8.91559         0.087156      0.357522     -0.066669
O       9.66909     13.39539      8.76936        -0.218134     -0.464716      1.990460
O       9.44069      5.59571      0.45013        -0.324314      0.769612      0.861018
O       9.39768      5.65273     13.08572        -0.131198      0.104930      0.449252
O       9.53931      5.56821      4.70918        -0.705754     -0.211904     -0.254410
O       9.52499      5.75082      8.96318        -0.211010     -0.088165     -0.289012
O       9.49482      9.50352      0.68588         0.095479     -0.139735     -1.098383
O       9.54501      9.69788     13.27429        -0.213372     -0.371608      0.063115
O       9.50902      9.65011      4.67027        -0.107308     -0.198851      0.206086
O       9.41883      9.35179      8.86121         0.155918      0.369019      0.914596
O       3.78232      1.97355      2.64848         0.284704     -0.556645     -0.610403
O       3.66463      2.10681     15.26636         0.308290     -0.208653     -0.045556
O       3.81900     13.29222      2.54539        -0.140357      0.187987     -0.018859
O       3.73762     13.22582     15.15064         0.111761     -0.327101      0.431450
O      15.10802      1.90969      2.59973         1.069827      0.272694      0.081663
O      15.14862      1.79294     15.46527         0.276111      0.600934     -0.327987
O      15.18070     13.19888      2.42761         0.188166      0.029358      0.559723
O      15.17956     13.39684     15.39592        -0.125222     -0.231709      0.011845
O       3.76938      1.96676      6.69647        -0.645203     -0.303907      0.175105
O       3.82755     13.38293      6.78595        -0.776880      0.066702      0.066846
O      15.19914      2.00124      6.76760        -0.202488     -0.327969     -0.305376
O       0.11216     13.24992      6.91372        -0.427071     -0.008215     -0.429526
O       3.82445      2.03375     11.27154        -1.116382     -0.148702     -0.787467
O       3.82099     13.26971     10.96127         0.610064     -0.121469      0.228829
O      15.10965      1.84594     11.14171         0.025729     -0.009428     -0.408879
O       0.04426     13.39532     11.01267        -1.104075     -0.344433     -0.694023
O       3.78487      5.64280      2.51205        -0.129122      0.663244      0.324711
O       3.71724      5.70930     15.15495         0.517794     -0.087908      0.304298
O      15.04121      5.62737      2.49036         1.764222      0.325437      0.630631
O      15.13303      5.77605     15.35333        -0.124027      0.672268      0.354578
O       3.74429      5.59851      6.93750         0.173141      0.373382     -0.110682
O      15.15622      5.66981      6.61623        -0.391431      0.079608      0.355296
O       3.74771      5.45867     10.96899        -0.325225      0.219413      0.461181
O      15.13100      5.94279     11.05567         0.382328     -0.532170     -0.232133
O       3.85953      9.46514      2.62139        -1.681699     -0.294026     -0.207008
O       3.79655      9.49125     15.24763        -0.261621      0.059028     -0.099030
O      15.16196      9.58657      2.56331         1.371188     -0.216586     -0.164469
O      15.18563      9.30925     15.24769         0.082950     -0.005915      0.758781
O       3.79318      9.36093      6.79663         0.166968      0.229293      0.351071
O      15.15381      9.43368      6.77245         0.898958      0.336570      0.534690
O       3.85364      9.67926     11.16694        -0.215316     -0.088859     -0.331987
O      15.14992      9.58093     11.10364         0.428054     -0.404566     -0.164337
O       7.56391      1.75091      2.68460         0.006605      0.654066     -0.698385
O       7.57612      1.76086     15.39555        -0.181666      0.349104     -0.560685
O       7.61634     13.35274      2.47655        -0.240579      0.215836      0.293481
O       7.59751     13.45506     15.21925        -0.701721     -0.465166      0.075257
O       7.54124      1.86561      7.01744        -0.760041      0.658209     -0.475448
O       7.58841     13.31850      6.85711         0.814799     -0.702387      0.140147
O       7.59560      1.73170     11.02581        -0.611763      0.257369     -0.107345
O       7.71512     13.34862     11.04668        -0.194964      0.396800     -0.202825
O       7.44187      5.73404      2.71578         2.247910     -0.448519     -0.393426
O       7.54960      5.76248     15.31081         0.350613      0.262974     -0.105982
O       7.50947      5.71347      6.89159         0.150761     -0.264092     -0.040329
O       7.59866      5.87690     10.95623         0.022627      0.040243      0.436011
O       7.53846      9.50805      2.69342         0.119724      0.089459     -0.397511
O       7.61764      9.45504     15.39100        -0.770010      0.165931     -0.240953
O       7.54241      9.49935      6.83803        -0.276558     -0.091550     -0.060330
O       7.71350      9.45916     11.18856        -2.404221     -0.231171      0.131353
O      11.35429      1.84617      2.64378        -1.019262      0.345529     -0.101698
O      11.36492      1.95245     15.30503        -0.385048     -0.037945      0.089486
O      11.41907     13.35278      2.58618        -0.042812      0.196278     -0.052340
O      11.37946     13.23622     15.26976         0.509404      0.150295      0.082954
O      11.32828      1.92924      6.80288        -0.247747     -0.128933      0.404778
O      11.41468     13.23791      6.83651         0.639625      0.176646     -0.324506
O      11.41356      1.95568     11.09976        -0.161946      0.249272     -0.272082
O      11.42221     13.19588     11.25202        -0.172380      0.495734     -0.702113
O      11.27551      5.71240      2.57640        -0.474692     -0.401316      0.087060
O      11.27056      5.55106     15.32491         0.781875      0.398627     -0.303712
O      11.26721      5.71356      6.79552         1.028381     -0.336780      0.049816
O      11.41905      5.65836     11.22685        -0.263386     -0.216685     -0.743547
O      11.40105      9.52623      2.65190        -0.073303     -0.173916      0.128370
O      11.42227      9.60579     15.52978        -1.086006     -0.569381     -0.394078
O      11.37928      9.63513      6.80483         0.355839     -0.820394      0.054117
O      11.35606      9.65521     11.22852         0.685531     -0.579646     -0.292648
O       1.93583      3.80713      2.57063        -0.500259      0.062799      0.045594
O       1.65623      3.90574     15.35044         0.653147     -1.449426     -0.325218
O       1.82054     15.16645      2.35903         0.255611     -0.245675      0.596966
O       1.98589      0.00275     15.32905        -0.315615      0.371434      0.238049
O      13.20899      3.80143      2.72640        -0.282429     -0.596994      0.072759
O      13.34168      3.81213     15.33614        -0.211338     -0.236098      0.023010
O      13.32813     15.16829      2.37598         0.139360     -0.339820      0.722824
O      13.28726      0.01659     15.39409        -0.615433     -0.118802     -0.042637
O       1.86454      3.76762      6.74526         0.235557     -0.139374      0.156529
O       1.79999      0.10183      6.70702         0.631020     -1.125311     -0.006355
O      13.20987      3.79575      6.88402        -0.433750      0.179019     -0.467819
O      13.27033     15.14353      6.94653         0.274747      0.760330     -0.433855
O       1.69783      3.83176     11.14619         0.127160     -0.804596      0.233177
O       2.00665      0.04416     11.01465        -0.332328      0.347457     -0.234152
O      13.35715      3.84775     10.99645         0.043918     -0.340880      0.135329
O      13.15655     15.17824     11.08960         0.159669      0.416943     -0.606139
O       1.78394      7.58223      2.52751         0.316011      0.604840     -0.199270
O       1.91597      7.65685     15.31097         0.230494     -1.192273      0.362227
O      13.22624      7.59119      2.43375         0.137823     -0.390185      0.625350
O      13.09235      7.50449     15.33629        -0.045722      1.210693      0.896657
O       1.87491      7.54330      6.79060         0.130135     -0.295245      0.602253
O      13.19152      7.65813      6.73126        -0.002774     -1.436044      0.088486
O       2.00732      7.68354     11.13825         0.109272     -0.777877     -0.097124
O      13.22578      7.62224     11.08058        -0.388711      0.289761     -0.079478
O       1.95291     11.39038      2.67468        -0.056956     -0.988071     -0.316005
O       1.75704     11.38649     15.23793        -0.006334     -0.145338      0.177739
O      13.22069     11.43068      2.54394         0.289233     -0.670401      0.218491
O      13.40425     11.32567     15.19331         0.024138      1.392554      0.584714
O       2.01045     11.30826      6.78670        -0.428749      1.068657     -0.056847
O      13.31837     11.36175      6.84386         0.346557      0.372139      0.114379
O       1.88967     11.46300     11.00942        -0.258613     -0.061840      0.122996
O      13.20229     11.45545     11.05888         1.114840     -0.359669      0.015361
O       5.70927      3.81182      2.61748         0.276409     -0.050063      0.080411
O       5.84152      3.81302     15.09990        -0.466537      0.489334      0.171725
O       5.60611      0.01230      2.34898        -0.023124      0.544021      0.925275
O       5.46028      0.00520     15.27510         0.377978     -0.379178      0.375949
O       5.63136      3.82007      6.75543         0.568334     -0.404260      0.272245
O       5.75498      0.01814      6.82356        -0.600513      0.449310     -0.125233
O       5.80895      3.79830     11.00172         0.303177     -0.883475      0.298276
O       5.63111     15.14918     11.11764         0.124143      1.214023     -0.518495
O       5.73232      7.55862      2.54348        -0.653564      0.903341     -0.089225
O       5.72041      7.59549     15.20517        -0.366827      0.902631      0.141034
O       5.66890      7.51288      6.94808        -0.231200      1.054738     -0.237399
O       5.41034      7.59483     11.06460         0.750197      1.092668     -0.145572
O       5.66253     11.45971      2.60218         0.539214     -0.741835     -0.681875
O       5.70949     11.38419     15.47988         0.283262     -0.170438     -1.261900
O       5.58902     11.37208      6.77282         0.178146     -0.618074      0.079809
O       5.88436     11.50374     11.13776        -0.472445     -1.297340     -0.212819
O       9.32155      3.74250      2.53524         0.147877      0.173203      0.195367
O       9.34536      3.81653     15.34858        -0.043315     -0.560362     -0.416870
O       9.55316      0.02290      2.74775        -0.630159      0.072330     -0.673020
O       9.52549      0.00701     15.25987         0.445670      0.029955      0.005225
O       9.41835      3.82986      6.96475        -0.087631     -0.951144      0.029097
O       9.41354     15.16139      6.82244         0.287644      0.981025     -0.063618
O       9.33914      3.72961     11.00499         0.464930      0.249157     -0.097252
O       9.61475     15.13951     11.07445         0.196719      0.244729      0.135852
O       9.46929      7.55450      2.75779        -0.307970     -0.323106     -0.402326
O       9.54994      7.63051     15.31780        -0.082289     -0.355039      0.015185
O       9.52958      7.61904      6.64835        -0.314080     -0.596068      0.389601
O       9.59052      7.64296     11.13881        -0.188352     -0.816804      0.127610
O       9.55431     11.49183      2.63080        -0.365392     -0.198482     -0.182603
O       9.43963     11.46251     15.44475        -0.236986     -0.934300      0.140686
O       9.55205     11.34158      6.92591        -0.947097      1.058290      0.058358
O       9.45490     11.37595     10.85386        -0.290493      0.067620      0.298745
