  # total energy = -7880.10159376 
CRSYTAL
PRIMVEC
    15.6000000000000000    0.0000000000000000    0.0000000000000000
     0.0000000000000000   15.6000000000000000    0.0000000000000000
     0.0000000000000000    0.0000000000000000    17.640000000000000
PRESSURE
-3.1339 -3.21579 -5.34558 0.009579 0.143237 -0.005312
PRIMCOORD
320 1
Pb       3.95972      3.88211      4.31704        -0.693958      0.248697      0.828305
Pb       3.95808      3.89989     17.55679        -0.183384     -0.610584      0.528971
Pb       3.78171     15.49025      4.34903         0.290708      0.390387      0.846933
Pb       3.84856      0.02848      0.00495         0.357018     -0.231016     -0.204470
Pb      15.51768      3.84720      4.30824         0.059731     -0.008181      0.438097
Pb       0.05438      3.85809     17.52530        -0.461358     -0.106411      0.653245
Pb       0.01183     15.58026      4.32594        -0.403351      0.340822      0.271477
Pb      15.53160     15.57017      0.00212        -0.006016      0.203284      0.546323
Pb       3.84549      3.94298      8.71616         0.179740      0.090066      0.770392
Pb       3.88454      0.00437      8.77113        -0.004433     -0.165173      0.079648
Pb      15.59426      3.91286      8.81509         0.051434      0.206611      0.017357
Pb      15.51891      0.07503      8.69747         0.228950     -0.224124      0.448413
Pb       3.91475      3.89805     13.18168         0.058134     -0.601724      0.726600
Pb       3.95687      0.06217     13.15651         0.175102     -0.091186      0.568186
Pb       0.04055      3.95214     13.16594        -0.685375     -0.302420      0.509203
Pb      15.51081     15.53427     13.19603        -0.101910     -0.068582      0.773797
Pb       3.95607      7.75183      4.31769        -0.393132      0.016890      0.759325
Pb       3.95397      7.72952     17.51466        -0.031435      0.487348      1.261864
Pb      15.59135      7.58921      4.28471         0.027526      0.896632      1.032305
Pb       0.04004      7.73803     17.50369        -0.444195      0.190048      0.821021
Pb       3.81546      7.73712      8.72956        -0.011089      0.245442      0.269461
Pb      15.58551      7.83237      8.71781        -0.193816     -0.123617      0.050550
Pb       3.92981      7.76859     13.15366        -0.434617      0.650968      0.633338
Pb       0.02004      7.72749     13.13489         0.018913      0.376088      0.350658
Pb       3.89615     11.62289      4.30072         0.014489      0.024242      0.262106
Pb       3.83328     11.66352     17.54364        -0.062604      0.539773      0.298185
Pb       0.06254     11.77279      4.34199        -0.380364     -0.491065      0.295244
Pb       0.02542     11.68783     17.53238         0.088789     -0.438764      0.283428
Pb       3.84564     11.78769      8.84223        -0.181899     -0.164354     -0.303643
Pb      15.59371     11.65274      8.70203        -0.509024     -0.231260      0.646754
Pb       3.89331     11.66534     13.15769        -0.236399     -0.244059      0.726966
Pb      15.55955     11.77511     13.17015        -0.117175     -0.307136      0.728548
Pb       7.73199      3.80171      4.27792         0.054136     -0.702317      0.988959
Pb       7.82112      3.91492     17.61427        -0.045524     -0.395636      0.889463
Pb       7.70089     15.54084      4.37650         0.296044      0.449676      0.344099
Pb       7.74126      0.00152     17.53937        -0.363905     -0.189721      0.299871
Pb       7.71830      3.91605      8.78588         0.149222     -0.135715      0.288961
Pb       7.72234      0.07492      8.75711         0.245254     -0.609032      0.396262
Pb       7.71437      3.87191     13.25468         0.259101     -0.290736     -0.047637
Pb       7.81015      0.06636     13.08930        -0.203110     -0.151929      0.249320
Pb       7.76811      7.66435      4.30649        -0.031638      0.701918      0.740432
Pb       7.77644      7.71285     17.48881         0.036032      0.836309      1.276851
Pb       7.74981      7.81303      8.77706         0.146309      0.519698      0.445237
Pb       7.84742      7.70293     13.19897        -0.115409      0.543812      0.398366
Pb       7.72405     11.53608      4.26802        -0.014233      0.347324      0.835421
Pb       7.80044     11.62890     17.41543        -0.220058      0.146592      0.846938
Pb       7.76181     11.70250      8.60829         0.591116     -0.075397      0.899851
Pb       7.72812     11.72247     13.09739         0.624826     -0.178350      1.064569
Pb      11.75669      3.80210      4.23103         0.227263     -0.097251      0.706617
Pb      11.58742      3.82405     17.58598         0.491483     -0.240025      0.385111
Pb      11.70905     15.57631      4.27035         0.325678      0.147202      0.710099
Pb      11.73736     15.59249     17.59961        -0.345290     -0.204908      0.654319
Pb      11.70725      3.87918      8.69824        -0.079822      0.555895      0.898534
Pb      11.60123      0.02366      8.73661         0.723813     -0.461795      0.784066
Pb      11.68688      3.85610     13.13080         0.452786     -0.047301      0.093602
Pb      11.63586      0.06082     13.16576         0.409074     -0.013425      0.388925
Pb      11.62447      7.79582      4.37369         0.523449     -0.182649      0.289575
Pb      11.69693      7.77860     17.60405         0.245656      0.222408      0.456942
Pb      11.71090      7.80813      8.74230         0.355814      0.012826      0.470262
Pb      11.65441      7.81949     13.08816         0.139177     -0.054490      0.282858
Pb      11.66575     11.53001      4.38988         0.713462      0.276352      0.670879
Pb      11.58103     11.73823     17.62052        -0.008077     -0.118958      0.383287
Pb      11.59348     11.78665      8.89903         0.135934     -0.411414     -0.248850
Pb      11.67202     11.69945     13.27991         0.147974     -0.008089      0.079189
Ti       1.96262      1.94954      2.38966        -1.313424      0.067839     -1.877702
Ti       1.97138      1.96538     15.63178         0.049868     -1.214488      0.702450
Ti       1.99248     13.64469      2.45344        -0.421398     -0.285861     -0.910231
Ti       1.86687     13.75564     15.63257         0.133859     -0.949050     -0.362633
Ti      13.67643      1.91912      2.37494        -0.197725     -0.603919     -1.325238
Ti      13.60843      1.86657     15.61992         0.143855      0.561300     -0.893901
Ti      13.65992     13.56994      2.46955         0.344964      0.584266     -1.672282
Ti      13.56256     13.54612     15.80926         0.280853      0.029596     -2.942064
Ti       1.99679      1.96894      6.88629        -0.652906      0.347077     -2.240431
Ti       1.96988     13.62988      6.84449        -0.474635     -0.097423     -1.005011
Ti      13.69523      2.03946      6.88385         0.006874     -0.968056     -1.620100
Ti      13.73019     13.64149      6.80462        -1.066124     -0.704978      0.161011
Ti       1.90354      1.93639     11.30427         0.514849     -0.241570     -1.984316
Ti       1.98314     13.71481     11.29718        -0.969189     -0.669008     -1.860470
Ti      13.70938      1.90031     11.21123        -1.260960      0.874991     -1.318345
Ti      13.65042     13.59682     11.23220        -0.540013     -0.166071      0.206335
Ti       1.88569      5.80831      2.40839         0.072983      0.072997     -0.797854
Ti       1.97828      5.85765     15.71429        -1.141631     -0.202292     -2.155763
Ti      13.55126      5.93380      2.39449         1.211860     -0.969723     -0.386144
Ti      13.53199      5.81518     15.66522         0.731037     -1.098421     -1.363803
Ti       1.94400      5.83500      6.82701        -0.580327      0.566704     -1.596112
Ti      13.60603      5.82615      6.80326         0.666753      0.721826     -1.188845
Ti       1.96357      5.79570     11.29470        -0.254008      0.768666     -2.000594
Ti      13.62990      5.84619     11.24850        -1.019780     -0.674117     -1.350046
Ti       1.89922      9.69097      2.40409        -0.093050      0.286866     -1.718758
Ti       2.00898      9.70026     15.69374        -0.740687      1.250658     -1.472299
Ti      13.67783      9.73701      2.33632         0.166653     -0.354706      0.076810
Ti      13.62292      9.61305     15.56757         0.895070      0.863152     -0.221064
Ti       1.95604      9.77559      6.73812        -0.788077     -1.152116      0.300768
Ti      13.56003      9.76621      6.80509         0.963489      0.096484     -1.277688
Ti       1.93948      9.78125     11.21248        -0.476866      0.174562     -0.619297
Ti      13.65600      9.72396     11.32791        -0.651174      0.239287     -2.645378
Ti       5.73524      1.92563      2.44262         1.399961     -0.816716     -2.059846
Ti       5.88152      1.98784     15.66123        -0.439668     -1.861676     -1.958463
Ti       5.87561     13.68820      2.47920         0.049556     -0.699958     -2.230409
Ti       5.76648     13.65549     15.56785         0.089455      0.663656     -0.722455
Ti       5.83919      1.94846      6.85360         0.168034      0.442618     -1.842191
Ti       5.85857     13.65347      6.76603         0.184515     -0.149887      0.484186
Ti       5.81609      1.97024     11.18702        -0.109540     -0.195395     -0.389608
Ti       5.90749     13.57426     11.24559         0.143310      2.247700     -2.140701
Ti       5.82500      5.86697      2.47251        -0.425135     -0.118847     -1.942613
Ti       5.87543      5.79790     15.64019         0.113690      0.429898     -1.641383
Ti       5.87358      5.87486      6.93920        -0.926343     -0.403136     -2.598436
Ti       5.81445      5.81920     11.38092         0.045299     -0.187731     -2.221922
Ti       5.83109      9.77504      2.31116         0.459363     -0.314483      0.073875
Ti       5.81146      9.71732     15.69133         0.506569      0.907284     -2.107438
Ti       5.84860      9.76378      6.84582        -0.579246     -0.414333     -1.615339
Ti       5.85385      9.69702     11.28469         0.198203     -0.171694     -1.515500
Ti       9.70454      1.86752      2.41276         0.101603     -0.311326     -1.416227
Ti       9.70931      1.94746     15.68490        -0.159475     -0.807014     -1.324019
Ti       9.80162     13.60193      2.56612        -0.223057      0.031636     -1.659610
Ti       9.66335     13.64499     15.65268         0.067493     -0.022041     -0.960820
Ti       9.75668      1.94127      6.92591        -0.733426     -0.224485     -2.625579
Ti       9.78682     13.64015      6.81022         0.231145     -0.317776      0.692150
Ti       9.71155      2.04971     11.25407         0.812665     -1.073661     -0.399301
Ti       9.85372     13.61306     11.37456        -0.902386      0.278005     -2.153621
Ti       9.66820      5.73409      2.52569         0.710810      0.610838     -1.945878
Ti       9.73797      5.80524     15.70680        -0.436700      0.491570     -2.465379
Ti       9.73092      5.82082      6.81539         0.217099      0.134182     -1.029777
Ti       9.70516      5.87049     11.27302         0.821778     -0.258960     -1.404458
Ti       9.79700      9.70975      2.44896        -1.023617      0.201835     -1.955208
Ti       9.80950      9.65099     15.60437        -0.924281      1.359292     -1.390577
Ti       9.78769      9.66540      6.81477         0.068917      0.867036      0.473178
Ti       9.66273      9.73349     11.29801         1.219594      0.835738     -2.388805
O       1.91358      1.92387      0.58854         0.444834      0.103815      1.071870
O       2.02115      1.83803     13.90076        -0.173661      0.285700     -0.393572
O       1.96945     13.59180      0.71342        -0.015165      0.096120      0.113339
O       1.67067     13.82731     13.87319         0.572434     -0.376433      0.394935
O      13.66698      1.78367      0.58835        -0.248225      0.380166      0.397665
O      13.45654      1.88852     13.80374         0.620580      0.239557      2.078325
O      13.60274     13.67565      0.66334         0.209426     -0.155994      0.222763
O      13.55969     13.58700     13.93574         0.174219     -0.111829      2.075474
O       2.02761      2.08685      5.10875        -0.123847     -0.210536      0.299201
O       2.02973     13.41479      5.05581        -0.216369      0.534098      0.510279
O      13.69665      2.03508      5.07464        -0.154438     -0.128590      1.117909
O      13.70216     13.49341      5.06618         0.134512      0.445272     -0.446402
O       1.91614      1.97839      9.47021        -0.053270     -0.221364      1.361470
O       1.93404     13.67018      9.43156         0.539071     -0.008276      1.498268
O      13.78047      1.88700      9.36987        -0.073156      0.253616      1.032755
O      13.65904     13.50392      9.48660        -0.126701      0.444746      0.681819
O       1.82187      5.91446      0.61343         0.520117     -0.430035      0.314843
O       1.86653      5.90080     13.87881         0.376800     -0.209203      1.492818
O      13.78943      5.99405      0.65501        -0.873883     -0.252416     -0.424431
O      13.54747      5.76394     13.88463         0.173250     -0.006274      0.871135
O       2.05065      5.81101      5.04089        -0.428717      0.138387      0.102164
O      13.58349      5.67214      5.02952         0.086307      0.295678      0.120842
O       1.91017      5.85793      9.49377         0.246497     -0.266073      1.373747
O      13.60526      5.80641      9.46661         0.116477      0.174853      0.544023
O       1.99951      9.83600      0.58444        -0.073171     -0.535345      1.378249
O       2.17695      9.54117     13.93237        -0.429249      0.398101      0.260518
O      13.66223      9.53713      0.60582        -0.410861      0.102845     -0.317277
O      13.56708      9.61518     13.79321         0.242514      0.152865      0.651042
O       1.78193      9.58969      4.99183         0.443063      0.679910      0.046216
O      13.57770      9.76924      4.99347        -0.121703     -0.007875      0.988331
O       1.89614      9.92627      9.43883         0.463855     -0.429103      1.267275
O      13.72152      9.75778      9.48704        -0.348408     -0.175001      1.593023
O       5.86726      1.78082      0.61831        -0.364867      0.287522      1.349102
O       5.87101      2.03811     13.80433         0.149724     -0.083189      1.482556
O       5.90282     13.81707      0.69813        -0.102918     -0.097548      0.735936
O       5.82591     13.70092     13.76892        -0.239910     -0.315781      0.302929
O       5.88981      1.88234      5.01978        -0.326671      0.543381      0.901682
O       5.77841     13.60102      5.04041         0.093260      0.254331     -0.497007
O       5.81086      2.08877      9.40085         0.121391     -0.412656      0.329348
O       5.82728     13.77024      9.36392        -0.261173     -0.547654      1.809600
O       5.84679      5.83699      0.67388         0.021254      0.018635      0.629850
O       5.79589      5.79260     13.79902         0.385160     -0.119501      1.710037
O       5.77376      5.80395      5.08295         0.417129      0.148290      1.043226
O       5.69798      5.68062      9.59538         0.446156      0.540984      0.201068
O       5.87721      9.73355      0.56407        -0.105267     -0.185360     -0.229060
O       5.77491      9.79960     13.87361        -0.158127     -0.090893      1.035766
O       5.91479      9.69593      5.07188        -0.335058     -0.042575      0.623398
O       5.84624      9.70801      9.50736         0.058102      0.192090      0.275349
O       9.72304      1.91468      0.61067         0.031916      0.160848      0.575496
O       9.67051      1.97754     13.89147         0.065264      0.004415      0.707283
O       9.87406     13.56245      0.79249        -0.391621     -0.307819      0.642242
O       9.73369     13.51628     13.90792        -0.010918      0.387719     -0.445508
O       9.71538      1.85656      5.10772         0.123094      0.051397      1.269523
O       9.86683     13.73188      5.09573        -0.267293     -0.083226     -0.915199
O       9.65861      1.97770      9.51702         0.053929      0.333247     -0.800707
O       9.84125     13.53308      9.56768         0.062940      0.027737      1.041618
O       9.60643      5.75682      0.71627         0.283400     -0.037012      0.846727
O       9.65118      5.89372     13.90264         0.075714     -0.030483      0.779298
O       9.63701      5.92174      5.02007         0.316455     -0.479669      0.499366
O       9.83587      5.79651      9.51404        -0.494364      0.117049      0.377558
O       9.74282      9.95422      0.64685         0.268885     -0.768500      1.014879
O       9.66632      9.74486     13.81155         0.475902     -0.529124      1.419817
O       9.95844      9.68802      5.07291        -0.487430     -0.217718     -0.220769
O       9.65759      9.95632      9.47492        -0.127326     -0.748306      0.778247
O       3.85193      1.95063      2.69370         0.313298     -0.038943      0.396915
O       3.98722      1.87092     16.03907        -0.811875      0.426571      0.224719
O       3.88385     13.68183      2.85784        -0.100094     -0.636490      0.087173
O       3.83086     13.69479     16.01722         0.118666      0.225591     -0.149571
O      15.54165      1.76302      2.68376         0.898730      0.751092      0.676762
O       0.06191      1.99064     16.09489        -0.998838     -0.254233     -0.887340
O       0.06269     13.70658      2.87929         0.042251     -0.651917      0.021337
O      15.52190     13.61110     16.14269         0.426266     -0.021237     -0.128149
O       3.86912      2.02642      7.25378         0.744389     -0.325019      0.080891
O       3.85476     13.63800      7.17367         0.804604      0.229349      0.543634
O       0.01031      2.06348      7.25272        -0.127661     -0.437351      0.023663
O      15.59624     13.69362      7.19204         0.667769     -0.396092     -0.050947
O       3.88939      1.88086     11.64310        -0.587684      0.122316     -0.109454
O       3.79090     13.61177     11.65469         1.112303      0.226551     -0.189970
O       0.00094      1.95469     11.70548         0.568917      0.132095     -0.134673
O      15.49855     13.57652     11.72344         0.361977      0.515825     -0.440071
O       3.86019      5.82816      2.82945         0.490627     -0.335370     -0.353400
O       3.96730      5.80735     16.08942        -0.217109     -0.049160     -0.378756
O      15.55184      5.79062      2.83996         0.295825      0.117648     -0.087165
O      15.59869      5.72886     16.00582         0.610026      0.399019     -0.116740
O       3.85438      5.80454      7.19301         1.085209      0.344047      0.673443
O      15.55405      5.93760      7.09383         0.041988     -0.239249      0.529443
O       3.90024      5.78269     11.73229        -0.979676      0.647076     -0.131864
O      15.51165      5.69420     11.66938         1.487184      0.713284      0.070275
O       3.97820      9.54863      2.77743        -0.722638      0.798222     -0.107892
O       3.89790      9.72224     16.15492         0.673576     -0.226166     -0.116868
O      15.56526      9.75075      2.60385         0.810872     -0.579544      0.548726
O       0.03834      9.72255     16.00471        -0.524108     -0.410571     -0.223621
O       3.79644      9.72785      7.06776         1.227281      0.211440      0.509450
O      15.55669      9.65813      7.31675         0.165134      0.553353     -0.705288
O       3.94407      9.74343     11.65957        -0.784570      0.318253     -0.201847
O      15.56648      9.80383     11.58059         0.721974     -0.313101      0.571307
O       7.77133      1.85673      2.71080         0.122825     -0.107582      0.621438
O       7.79226      1.99057     16.10462         0.350237     -0.292313     -0.128934
O       7.78671     13.61449      2.93966         0.444530     -0.061065     -0.208303
O       7.69609     13.59830     15.90523         0.765336      0.201475      0.546829
O       7.77502      2.04869      7.18934        -0.084393     -0.599141      0.608706
O       7.80019     13.68721      7.24794        -0.314220      0.145763     -0.413463
O       7.78020      1.98476     11.59265        -0.252144      0.147125      0.205211
O       7.81517     13.70912     11.61139        -0.547494     -0.288039      0.098962
O       7.73671      5.68269      2.88824         0.374602      0.390395     -0.201289
O       7.80490      5.85639     16.11817        -0.992840     -0.254973     -0.436434
O       7.79672      6.01300      7.23111         0.032076     -0.598351      0.175090
O       7.72163      5.86494     11.62839         0.509487     -0.429399      0.192599
O       7.80193      9.77822      2.82688        -0.024631     -0.553298     -0.211634
O       7.74594      9.70676     15.93607         0.450842      0.259388      0.450211
O       7.73566      9.58067      7.14723         0.839942      0.276195      0.321995
O       7.82749      9.62464     11.71601        -1.605781      0.827505      0.021733
O      11.71075      1.79857      2.74934        -0.346677      0.535580      0.192561
O      11.61381      1.91427     16.11866         0.705688      0.274253     -0.354388
O      11.85054     13.58214      2.79122        -2.067883     -0.023727      0.715936
O      11.59857     13.64637     16.13721         0.953710     -0.302658     -0.042479
O      11.66329      1.95165      7.24817         0.382571      0.155125      0.017374
O      11.67305     13.66207      7.25251        -0.057456     -0.072116      0.106410
O      11.70085      1.90209     11.54857        -0.206831      0.714859      0.267171
O      11.69579     13.67286     11.79855         0.404474     -0.475464     -0.419259
O      11.72597      5.82127      2.83586        -1.481824     -0.266036     -0.244004
O      11.56952      5.82292     16.03956         1.311603      0.073284      0.532639
O      11.71290      5.85366      7.21568        -1.067571     -0.711406      0.103616
O      11.68219      5.86793     11.61226        -0.242054     -0.059427      0.405800
O      11.67173      9.67772      2.78567         0.118346      0.016637      0.000691
O      11.75039      9.61442     15.93106        -0.873057      0.243431      0.293186
O      11.71528      9.85864      7.24830        -0.845324     -0.549019      0.113584
O      11.61636      9.66146     11.55348         0.730522     -0.060233      0.570550
O       1.79107      3.85339      2.74634         0.736814      0.196737     -0.008710
O       2.07453      3.81515     16.04838        -0.125331      1.503339     -0.099621
O       1.96039      0.04480      2.85203         0.179177     -0.748803      0.023252
O       1.85547     15.56551     16.19750         0.389230      0.547708     -0.553272
O      13.62531      3.83141      2.72607        -0.059812      0.054680      0.043300
O      13.55887      3.83250     16.09788        -0.034828      0.021245     -0.100102
O      13.68489     15.55623      2.89827        -0.120132     -0.238665      0.097163
O      13.69282     15.54490     16.09030        -0.499847      0.774254     -0.359627
O       1.94014      3.99935      7.16890        -0.325853     -1.271099      0.858110
O       1.91002      0.02853      7.02590         0.339538     -0.305827      0.711862
O      13.67270      3.91932      7.22009        -0.274663     -0.523608      0.445527
O      13.66694     15.54965      7.30798        -0.198141      0.842990     -0.575701
O       2.07074      3.87424     11.63967        -0.909214     -0.118918      0.209834
O       1.86376     15.55470     11.74135         0.136102      0.592092     -0.588911
O      13.66140      3.84473     11.53475        -0.254474      0.164201      0.635509
O      13.59721      0.08300     11.70427         0.391279     -1.557230     -0.508036
O       1.93577      7.72891      2.82973        -0.282463      0.226836     -0.253911
O       2.01915      7.81745     16.10532        -0.011698     -1.836054     -0.134417
O      13.56226      7.75038      2.82111         0.361251      0.615146      0.253504
O      13.60406      7.67634     15.98742         0.167367      0.641281      0.157471
O       1.98661      7.76795      7.27060        -0.312839      0.605007      0.045588
O      13.50681      7.76968      7.11070         0.241254      0.483757      0.395815
O       1.86759      7.78989     11.62762         0.372031     -0.160466     -0.173956
O      13.64657      7.77241     11.65149         0.260047     -0.208687      0.088994
O       1.96572     11.60334      2.84075         0.298113      0.275633     -0.001048
O       2.00462     11.70200     15.93576        -0.274250      0.084327      0.322476
O      13.68930     11.63181      2.67838        -0.006440      0.232969      0.303486
O      13.67237     11.60244     16.11672        -0.539066      0.072480     -0.367450
O       1.95490     11.67197      7.28269        -0.148111      0.388350     -0.416120
O      13.61561     11.69851      7.20833         0.492437      0.050634      0.069566
O       1.90646     11.69294     11.77901         0.270423     -0.123507     -0.405601
O      13.53369     11.67191     11.72955         0.158977      0.212457     -0.154525
O       5.85566      3.80089      2.70765        -0.256808      0.525919      0.466674
O       5.91701      3.83587     16.09837        -0.358021      1.754575     -0.159658
O       5.75630     15.50415      2.91887         0.217556      1.509799      0.182826
O       5.86104      0.02593     15.91464         0.271501     -0.247522      0.447746
O       5.89742      3.92290      7.24551        -0.242397      0.344676      0.033496
O       5.89159      0.06108      7.13008        -0.503417     -0.428086      0.404848
O       5.72199      3.85201     11.71393         0.711761      0.364664     -0.056898
O       5.81490      0.05640     11.56145         0.135834     -0.438715      0.144764
O       5.93905      7.76839      2.80685        -0.128362     -0.683111     -0.198847
O       5.89007      7.77551     15.98061        -0.497273     -0.842470      0.021198
O       5.77252      7.76755      7.35919        -0.103453     -0.019717     -0.069525
O       5.82834      7.84551     11.63893        -0.054308     -1.083494      0.191691
O       5.80889     11.67787      2.65352        -0.147329     -0.222400      0.670172
O       5.75769     11.76108     16.05446         0.034482     -0.815793     -0.247581
O       5.90015     11.69281      7.04733        -0.418620      0.058981      0.619156
O       5.87424     11.77522     11.54005        -0.216367     -1.085539      0.171212
O       9.79800      3.78093      2.73941        -0.309439      0.558024      0.501682
O       9.64547      3.94274     15.98602         0.395049     -0.832633      0.540105
O       9.79490     15.52338      2.76436        -0.213995     -0.003159      0.470008
O       9.76174     15.56143     16.00188        -0.548105      0.488819      0.070837
O       9.64554      3.92616      7.20489         0.501150      0.069429      0.166997
O       9.73469     15.57463      7.42100        -0.456338      0.562350     -0.702108
O       9.77657      3.91875     11.72018        -0.560348      0.219709     -0.173557
O       9.85060      0.00810     11.61585        -0.960919     -0.117540      0.320144
O       9.65992      7.70625      2.75169         0.217846      0.273085      0.249204
O       9.72114      7.83148     16.12563         0.056332     -0.441822     -0.204013
O       9.87999      7.76589      7.23123        -0.495661      0.343622      0.040169
O       9.65294      7.81321     11.59044         0.197254     -1.214261      0.347471
O       9.76012     11.60324      3.00672         0.083031      0.639383     -0.413638
O       9.72182     11.71222     16.03417         0.394951     -0.953934      0.094822
O       9.67335     11.63530      7.17892        -0.017771      0.482031     -0.128534
O       9.75437     11.62105     11.73357        -0.136041      1.171895      0.185322
