  # total energy = -7877.10982841 
CRSYTAL
PRIMVEC
    15.2000000000000000    0.0000000000000000    0.0000000000000000
     0.0000000000000000   15.2000000000000000    0.0000000000000000
     0.0000000000000000    0.0000000000000000    17.000000000000000
PRESSURE
6.84955 7.55319 3.77876 0.077896 -0.136651 -0.030407
PRIMCOORD
320 1
Pb       3.69456      3.80592      4.27385         0.554556      0.266252     -0.262664
Pb       3.84809      3.83960     16.98822         0.423245     -0.056106     -0.326821
Pb       3.70535      0.09071      4.23837         0.498338     -0.620193      0.569361
Pb       3.80054     15.18056     16.93628         0.629577     -0.199784      0.176885
Pb       0.03187      3.81774      4.21240        -0.073307      0.036097      0.163296
Pb       0.08168      3.87795     16.95731        -0.202545     -0.487236     -0.058822
Pb      15.16903      0.08834      4.36618        -0.335902     -0.451560     -0.490070
Pb       0.02443     15.14846     16.96533        -0.234973     -0.102727     -0.006593
Pb       3.84974      3.83306      8.38892        -0.046129     -0.188775      0.792126
Pb       3.80638     15.11674      8.59330        -0.242145      0.070084     -0.406814
Pb       0.07425      3.68142      8.56402        -0.113283      0.566659     -0.173601
Pb      15.05560     15.17365      8.47241         0.375491     -0.261578     -0.206162
Pb       3.82777      3.66520     12.61695        -0.364992      0.768096      0.945429
Pb       3.80825      0.05644     12.79176        -0.356469     -0.801347      0.231278
Pb      15.15206      3.80265     12.68677         0.308328      0.617277      0.707973
Pb       0.02632      0.00872     12.78545        -0.187982     -0.602377      0.239710
Pb       3.73724      7.60709      4.28984         0.604972     -0.071855     -0.616433
Pb       3.74040      7.61523     16.96329         0.591871     -0.236821      0.242106
Pb      15.13630      7.68179      4.29689         0.000783     -0.252434     -0.422534
Pb      15.10230      7.51588     16.93627         0.527682     -0.074704      0.048900
Pb       3.81225      7.57735      8.40343         0.231603      0.199200      0.159312
Pb      15.10945      7.54931      8.48838         0.335235      0.340133     -0.206161
Pb       3.70779      7.53656     12.70624         0.490412     -0.391985      0.038211
Pb       0.01360      7.53901     12.78800        -0.271318     -0.274527     -0.834431
Pb       3.64990     11.39274      4.28391         1.108236      0.507320     -0.269620
Pb       3.92907     11.38931      0.08105        -0.766029      0.420459     -0.017043
Pb       0.02001     11.41077      4.19861        -0.942388      0.030242      0.577853
Pb       0.05310     11.33497     16.88503        -0.080506      0.714373      0.688555
Pb       3.70797     11.37642      8.53730         0.437555     -0.056870     -0.392519
Pb      15.17046     11.35404      8.56619        -0.073539      0.366208     -0.484611
Pb       3.75663     11.29354     12.66720         0.039049      1.127821      0.759068
Pb      15.15023     11.18185     12.87294        -0.053391      1.172218     -1.139756
Pb       7.55860      3.81138      4.25258         0.303248     -0.066181     -0.081886
Pb       7.61101      3.78079      0.06483        -0.628251      0.382542     -0.695926
Pb       7.57031     15.12674      4.21565         0.041333      0.354871      0.469907
Pb       7.65377     15.13861     16.96790        -0.796444     -0.073058     -0.284337
Pb       7.64171      3.65262      8.47294        -0.413441      0.954907     -0.159758
Pb       7.61387      0.03643      8.52230         0.173551     -0.573926     -0.383714
Pb       7.65553      3.72916     12.74570        -0.535225      0.714965      0.050962
Pb       7.57718     15.14136     12.77120         0.315075      0.233529      0.614920
Pb       7.63574      7.50327      4.14799        -0.152822      0.354582     -0.145981
Pb       7.64824      7.65845      0.04280        -0.674370     -0.822868      0.051954
Pb       7.57777      7.60775      8.39122        -0.323422     -0.098739     -0.099450
Pb       7.55287      7.64524     12.66318        -0.305462     -0.945891      0.666438
Pb       7.52856     11.35987      4.27608         0.046919      0.488003     -0.210756
Pb       7.53819     11.42074     16.96500         0.453384      0.032139      0.488156
Pb       7.61285     11.42359      8.58075        -0.421288     -0.174218     -0.601642
Pb       7.64435     11.39058     12.69340        -0.881740     -0.505843      0.718317
Pb      11.35449      3.92218      4.15140         0.144306     -0.693933      0.099498
Pb      11.33220      3.68388     16.95728         0.235989      0.613487     -0.112523
Pb      11.44220     15.16873      4.19705        -0.138138      0.109286     -0.239733
Pb      11.39582      0.01015     16.97619        -0.198104     -0.455664      0.228268
Pb      11.41359      3.78232      8.47542         0.062109      0.085214     -0.222291
Pb      11.36727      0.00454      8.48569        -0.134929     -0.024379     -0.518794
Pb      11.32429      3.66293     12.72939         0.301394      0.924387      0.309471
Pb      11.39402      0.01497     12.66213        -0.362624     -0.340150      0.777530
Pb      11.42104      7.50966      4.16845         0.288315      0.584371     -0.128670
Pb      11.39261      7.60236     16.95520         0.141806     -0.433726     -0.088123
Pb      11.35476      7.55452      8.59720        -0.097922     -0.022035     -0.641306
Pb      11.39336      7.64579     12.84452        -0.309952     -0.799171     -0.477332
Pb      11.36906     11.33926      4.21234         0.135593      0.282626     -0.112744
Pb      11.43355     11.39753     16.83898        -0.201829      0.182571      0.513077
Pb      11.38484     11.35539      8.49965        -0.580793      0.789143     -0.269974
Pb      11.31101     11.24430     12.59544         0.339583      0.841724      0.228652
Ti       1.87855      1.95983      2.26381         0.893564     -0.497421     -0.747130
Ti       1.92334      1.87535     15.06420        -0.053063      0.075246     -1.070270
Ti       1.75577     13.41159      2.31315         0.747424     -0.675806      1.289093
Ti       1.86553     13.25044     14.93530         0.380826      0.763434      1.606360
Ti      13.29930      1.91928      2.20090        -0.026659     -0.857050      1.121558
Ti      13.30856      1.85583     14.97132         0.160416      0.441589      0.287641
Ti      13.21789     13.24287      2.17893        -0.319782      0.711338      0.045659
Ti      13.17604     13.35951     14.83086         0.849472     -0.658567      0.354547
Ti       1.88928      1.84609      6.54461         0.148467      0.296217      1.374846
Ti       1.86458     13.31860      6.44318        -1.115942     -0.528103      0.374909
Ti      13.34135      1.94086      6.40497        -0.848390     -0.312817     -0.433227
Ti      13.24147     13.28251      6.39940        -0.044656      0.056847      0.943730
Ti       1.82346      1.85999     10.79014         0.430688      0.151912     -1.125987
Ti       1.81126     13.33036     10.65943        -0.152093     -1.208111      0.171242
Ti      13.32482      1.93723     10.86870        -0.666355      0.069300      0.579211
Ti      13.21302     13.35908     10.65323         0.564987     -0.580674      1.356116
Ti       1.92207      5.76565      2.15811         0.827428      0.331888      1.510391
Ti       1.94261      5.62177     14.83224        -0.341659      0.086785      0.616020
Ti      13.40056      5.63734      2.16763        -0.430431      0.970963     -0.243131
Ti      13.27564      5.55789     14.93467        -0.021607      0.802819      0.679276
Ti       1.92460      5.71723      6.48973        -0.108724     -0.164462      0.366285
Ti      13.33127      5.67388      6.47666        -0.402174      0.356951      0.767807
Ti       1.84044      5.67843     10.62815         0.545526      0.189127      1.221188
Ti      13.21700      5.78807     10.65156         0.324178     -0.521940      1.563098
Ti       1.96950      9.57976      2.28009        -0.013378     -2.504980     -0.972547
Ti       1.89176      9.42122     14.97300         0.354857      1.242565      0.547454
Ti      13.33318      9.50097      2.17996        -0.214459     -0.296607      1.474461
Ti      13.30835      9.51135     14.95235        -1.011947     -1.019099      1.362499
Ti       1.85479      9.51426      6.42916        -0.032462     -0.785915      1.973438
Ti      13.18363      9.52281      6.54945         0.322316     -0.404876     -0.948018
Ti       1.86498      9.50743     10.68219        -0.569280      0.184413      0.595511
Ti      13.20375      9.50671     10.67465         0.741699     -0.040766      0.317914
Ti       5.73151      1.97085      2.30174        -0.403676     -1.206674      0.350042
Ti       5.76402      1.89434     14.87121        -0.947771      0.179403      0.726412
Ti       5.62749     13.37655      2.34761        -0.277163     -0.710609     -1.640568
Ti       5.69140     13.18315     14.94528        -0.676366      1.297875      0.341842
Ti       5.68699      1.78117      6.50711         0.058839      0.701719     -0.035362
Ti       5.65145     13.29357      6.50656         0.186236     -0.658820      0.114718
Ti       5.67194      1.84745     10.73232         0.490212      0.037002      0.756345
Ti       5.65119     13.31454     10.78678        -0.415220     -1.405346      0.126772
Ti       5.69911      5.70490      2.18448        -0.467342      0.072374     -0.560494
Ti       5.68907      5.69044     14.91116         0.501551     -0.154756     -0.347961
Ti       5.68111      5.64216      6.34867         0.310152      0.237248      0.495881
Ti       5.60155      5.66401     10.70959         0.405547     -0.049141     -0.096728
Ti       5.84871      9.51511      2.17779        -2.001962     -0.273191      0.562802
Ti       5.67178      9.46586     15.07166         0.136944     -1.097674      0.153098
Ti       5.65939      9.50723      6.38713         0.281966     -0.143093      0.070360
Ti       5.62127      9.44463     10.76658        -0.549543      0.569957     -0.803134
Ti       9.46042      1.83859      2.20249         0.697551      0.448720      0.865287
Ti       9.47955      1.90680     15.01811        -0.167862     -0.954011     -0.322361
Ti       9.41837     13.30097      2.17842         0.414372     -0.608110      0.656402
Ti       9.47878     13.23282     14.92749        -0.581700      0.806417      0.572034
Ti       9.55671      1.96714      6.38946        -0.039131     -0.905913      0.670297
Ti       9.43583     13.38348      6.38720        -0.058827     -0.830969      1.339522
Ti       9.46606      1.84642     10.71712        -0.066167      0.638663     -0.075583
Ti       9.41582     13.27240     10.77943         0.241146      0.074956      0.607120
Ti       9.53014      5.66556      2.12620         0.006394      0.039848      0.809590
Ti       9.40903      5.76003     14.94087         0.375576     -0.394964      0.114648
Ti       9.52817      5.75092      6.43654        -0.208557     -0.038284      1.769489
Ti       9.40667      5.64546     10.67651         0.080350      1.471899     -0.236118
Ti       9.58691      9.53909      2.12335        -0.375383     -0.456556      0.971802
Ti       9.45154      9.43832     14.96882         0.103387     -0.363958      0.368200
Ti       9.45707      9.54600      6.36008        -0.543665      0.839579      2.450546
Ti       9.40529      9.39360     10.70104        -0.306882     -0.114918     -0.461139
O       1.95524      1.77845      0.47553        -0.434491      0.255400      0.540155
O       1.90342      1.83369     13.25293        -0.025422     -0.164339      0.475904
O       1.82779     13.45744      0.56828         0.123165     -0.306470     -0.425757
O       1.84400     13.30699     13.23312        -0.087913     -0.157900     -1.262292
O      13.37764      1.88576      0.45737        -0.197456      0.115995     -0.107981
O      13.28098      1.94631     13.18014        -0.302432      0.013924      0.447160
O      13.19731     13.16159      0.38924         0.069423      0.335528      0.497896
O      13.18865     13.38497     13.06669         0.061734     -0.486020      0.998595
O       1.84212      1.83091      4.79043        -0.047634      0.507612     -0.305646
O       1.67846     13.26314      4.61680         0.564144     -0.148421      1.546864
O      13.39766      1.95032      4.61249        -0.332540      0.086287      0.739324
O      13.07820     13.27180      4.62723         0.505169     -0.228355      0.454398
O       1.66329      1.85877      8.94646         0.519052     -0.089868      1.760459
O       1.90834     13.22285      8.85810        -0.334259      0.303827      0.922532
O      13.32008      1.95818      9.14149         0.102645     -0.338553     -1.049236
O      13.14175     13.50864      8.88908         0.235050     -0.307201      0.406774
O       1.99067      5.85306      0.41483        -0.437635     -0.556328     -0.257251
O       1.78167      5.73240     13.06885         0.468801     -0.036244      0.630891
O      13.60490      5.58859      0.37117        -0.807944      0.305343      0.947134
O      13.17234      5.53303     13.17718         0.505063      0.602874      0.145976
O       2.02162      5.67658      4.70235        -0.307065     -0.040027      0.492326
O      13.11933      5.75025      4.71635         0.589523     -0.398435     -0.013549
O       1.91554      5.66206      8.86095        -0.022091      0.115114      0.351461
O      13.37229      5.84690      8.90249        -0.282011     -0.508264     -0.068773
O       1.86345      9.60176      0.46460        -0.094951     -0.378848      0.800424
O       1.70679      9.68261     13.18509         0.606669     -1.025688      0.761216
O      13.37117      9.36581      0.42212        -0.180333      0.526740     -0.347924
O      13.22049      9.45281     13.22976         0.258014      0.121316     -1.464679
O       1.73312      9.35547      4.68910         0.494407      0.568530     -0.309322
O      13.13605      9.53429      4.70820         0.375351     -0.162200      1.322064
O       1.89999      9.65063      8.91099        -0.025487     -0.477199      0.490113
O      13.22266      9.47488      8.91060        -0.382906     -0.100385      0.085114
O       5.78214      2.11441      0.55845        -0.188675     -0.382401     -0.527431
O       5.68408      1.90466     13.08388         0.053301      0.002382      0.564387
O       5.62633     13.30020      0.46052         0.249091     -0.075391      1.508702
O       5.61566     13.16478     13.17404         0.270384      0.194954      0.806484
O       5.68748      1.73462      4.72018        -0.034187      0.429941      0.912769
O       5.63317     13.25111      4.72667         0.188645      0.404547      0.174390
O       5.80119      1.71210      8.97627        -0.342116      0.466214      0.316965
O       5.76467     13.29353      8.98542        -0.432907      0.275564      0.932048
O       5.73868      5.55858      0.32027        -0.315025      0.052152      2.285075
O       5.65791      5.70478     13.07898         0.099640     -0.298711      1.544069
O       5.53135      5.56388      4.53390         0.824861      0.514497      1.781383
O       5.48977      5.73690      8.88788         0.739946     -0.140743      1.640725
O       5.72154      9.39925      0.36354        -0.124335      0.555331      1.520231
O       5.63240      9.55336     13.31988         0.033864     -0.256705     -0.216239
O       5.81306      9.42132      4.57989        -0.180058      0.494934      1.070370
O       5.53592      9.54100      8.98024         0.009300     -0.457679      0.887938
O       9.39526      1.82276      0.40459         0.183945      0.405266      0.345408
O       9.61546      1.77071     13.23208        -0.559603      0.637074      0.345639
O       9.40765     13.17619      0.39956         0.070158      0.348715      0.339898
O       9.41870     13.41115     13.16300         0.391981     -0.617992      0.495317
O       9.61193      1.80397      4.65922        -0.147042      0.492533      0.097353
O       9.41617     13.35537      4.63599         0.411959     -0.263965      0.066284
O       9.42964      1.90122      8.91449         0.292459      0.437212      0.779742
O       9.16593     13.24112      9.06009         0.882325      0.386729     -0.282933
O       9.45159      5.55619      0.39573         0.374487      0.206538     -0.377074
O       9.39211      5.96614     13.15191         0.402893     -0.865943      1.018745
O       9.60882      5.85508      4.69303        -0.176770     -0.731769     -0.334911
O       9.37105      5.71228      8.85138         0.221838     -0.033202      0.900422
O       9.68096      9.44577      0.37042        -0.417181      0.297161      0.132905
O       9.42423      9.33760     13.17741         0.198634      0.179867      0.275861
O       9.41685      9.65540      4.63070         0.125561     -0.620765     -0.343856
O       9.36337      9.39872      8.91744         0.258499      0.185682      1.013912
O       3.75924      1.82189      2.71760         0.142832      0.518157     -0.532359
O       3.80525      1.93898     15.34890         0.759224      0.114811     -0.006206
O       3.70830     13.35568      2.86262        -0.063936     -0.539131     -1.150397
O       3.83643     13.21328     15.39314        -0.395961      0.361507     -0.212367
O       0.08704      1.89890      2.74857        -1.451987      0.431937     -0.601359
O      15.14368      1.71129     15.37886         0.563795      0.291237     -0.324193
O      15.05837     13.23810      2.65836         0.979240      0.003865     -0.434254
O      15.07545     13.27029     15.26692         0.433278      0.298838     -0.004581
O       3.75871      1.74518      7.03035         0.207461      0.133699     -0.741901
O       3.67244     13.48028      6.87332         1.221505     -0.546121     -0.244688
O      15.11991      2.00654      6.98215         0.932582     -0.584559     -0.685040
O      15.17844     13.17989      6.95266        -0.468709      0.425212     -0.618606
O       3.74747      1.79184     11.19207         0.066649     -0.244133     -0.973588
O       3.67766     13.40845     11.08267         1.438257     -0.342211     -0.233320
O       0.00830      1.85869     11.36328        -0.357229      0.039210     -1.090320
O      15.09286     13.21666     10.98891         0.412217      0.459747     -0.133702
O       3.86454      5.58707      2.61996        -1.284072      0.084521     -0.675556
O       3.81879      5.64228     15.34962        -0.661150     -0.138510     -0.398042
O       0.06903      5.58263      2.63458        -0.580918      0.589472     -0.193639
O       0.11803      5.61586     15.28819        -0.807822      0.309526     -0.049456
O       3.87023      5.70120      6.89025        -1.483616     -0.128615     -0.593040
O       0.05094      5.68227      6.83480        -0.721881     -0.101344     -0.369570
O       3.76662      5.57866     11.23013        -0.772868      0.395292     -0.898944
O       0.00426      5.78414     11.08215        -0.325453      0.069593     -0.244584
O       3.88143      9.52808      2.66514        -1.010189      0.281781     -0.327476
O       3.74860      9.50309     15.50839        -0.027651      0.215008     -0.879236
O      15.15775      9.48522      2.75966        -0.081210     -0.048847     -0.914266
O      15.17719      9.61735     15.30900         0.455626     -0.431563     -0.230236
O       3.78647      9.44219      6.81955        -0.898677      0.180815     -0.571124
O      15.00350      9.49628      6.98051         1.833045      0.180953     -0.669937
O       3.72664      9.51417     11.31106         0.061072     -0.463980     -1.163641
O      15.08249      9.48198     11.05542         1.156101      0.155951      0.158672
O       7.65683      1.92309      2.82473        -0.620623     -0.286252     -0.888399
O       7.56934      1.87212     15.29871         0.821371      0.017450      0.038306
O       7.57805     13.32666      2.74216        -0.408380      0.109452     -0.795464
O       7.57404     13.19439     15.41016         0.065363      0.156359     -0.473308
O       7.61725      1.98517      6.92199         0.020574     -0.484215     -0.964506
O       7.52786     13.24119      6.87997         0.279481      0.379248     -0.516606
O       7.60235      1.98327     11.20699         0.070226     -0.363666     -0.703804
O       7.58666     13.22919     11.38900        -0.509860      0.542545     -1.385452
O       7.56853      5.65913      2.58097         0.435739      0.044193      0.094975
O       7.63004      5.79345     15.39600        -0.505819     -0.451247     -0.521621
O       7.54277      5.68463      6.82300         0.447738     -0.037799     -0.672687
O       7.51185      5.59391     11.15657         0.139267      0.176954     -0.780518
O       7.65515      9.37392      2.53908        -0.286351      0.161410     -0.302126
O       7.58580      9.38203     15.49409         0.037006      0.466252     -0.797692
O       7.49377      9.55554      6.96863         0.298793     -0.047185     -1.008701
O       7.44873      9.41892     11.10919         1.179327      0.267989     -0.232472
O      11.39723      1.84465      2.53812        -0.022763      0.616026     -0.354557
O      11.37461      1.85601     15.48501         0.076688      0.502490     -0.408038
O      11.31124     13.30954      2.53461        -0.013218     -0.176782      0.009041
O      11.30459     13.28480     15.32922         0.308485     -0.212154     -0.078694
O      11.49433      1.90969      6.93180        -1.150597     -0.176486     -0.238281
O      11.32731     13.39448      6.95657        -0.157405     -0.399571     -0.603039
O      11.32830      1.94082     11.19132         0.709865     -0.082604     -0.752659
O      11.31178     13.32403     11.14344        -0.197994     -0.227027     -0.577534
O      11.45697      5.64726      2.50192        -0.594391      0.115056     -0.242833
O      11.40807      5.73246     15.32242        -0.094747     -0.437471      0.122501
O      11.44930      5.73377      7.03034        -1.400376     -0.251298     -0.713446
O      11.37490      5.77105     10.93656        -0.324810     -0.170564     -0.099484
O      11.40004      9.48624      2.62360         0.081161     -0.020940     -0.503934
O      11.39210      9.26819     15.30172         0.341899      0.402205     -0.259075
O      11.32039      9.62513      6.94693        -0.605642     -0.531833     -0.545273
O      11.28437      9.34502     11.09533         0.397850      0.802984     -0.076753
O       1.94601      3.85241      2.52892        -0.110978     -0.921849      0.152161
O       1.81208      3.76804     15.32353         0.643402     -0.112321      0.001303
O       1.78966     15.17837      2.86730        -0.039997      0.816035     -1.242374
O       1.99944     15.19984     15.45676        -0.664023     -0.959099     -0.522666
O      13.23790      3.84554      2.67734         0.698960     -1.094590     -0.338079
O      13.37867      3.71565     15.48519        -0.416665      0.123474     -0.541891
O      13.28053      0.01243      2.57388         0.261622     -0.112661     -0.154240
O      13.11684      0.00125     15.34475         0.390116     -0.630718     -0.266215
O       2.00297      3.79002      6.94740        -0.551210     -0.219926     -0.790624
O       1.76954     15.16986      6.89906        -0.547039      0.495510     -0.341056
O      13.24885      3.78074      6.88924         0.150298      0.687008     -0.126456
O      13.30746     15.16310      6.70900         0.301128      1.016911      0.304101
O       1.83544      3.77419     11.13712        -0.033892     -0.349802     -0.657135
O       1.82292     15.15589     11.17504        -0.353931      0.683911     -0.357688
O      13.38145      3.86541     11.16039        -0.568001     -0.397425     -0.655944
O      13.23962      0.02352     11.23894         0.353707      0.144208     -1.013458
O       1.91188      7.61089      2.70731        -0.055947     -0.261434     -0.528409
O       1.95848      7.59582     15.23733        -0.503853      0.070532     -0.255850
O      13.27199      7.52825      2.60510         0.485053      0.591363     -0.356506
O      13.47641      7.44477     15.35697        -0.537209      1.186803     -0.646491
O       1.82024      7.62972      6.91824         0.215993     -0.451378     -0.470214
O      13.18984      7.56040      6.90251         0.387673      0.787647     -0.375045
O       1.98023      7.60694     11.06870        -0.448027     -0.044505     -0.265150
O      13.24002      7.64941     11.15847         0.250970     -0.710987     -0.070174
O       1.87054     11.30238      2.71214        -0.240913      2.558034     -0.105723
O       1.88946     11.48520     15.48603        -0.006672     -1.292447     -0.537013
O      13.19630     11.38658      2.63407         0.204921     -0.602856     -0.528946
O      13.11091     11.36968     15.20375         0.432248      0.072378     -0.133109
O       1.90555     11.32601      6.78810        -0.025256      1.010121     -0.259536
O      13.21030     11.48062      6.99061        -0.222693     -0.886019     -0.385619
O       1.91135     11.38892     11.10266        -0.387180      0.245161     -0.248341
O      13.17615     11.40813     10.99485        -0.498716     -0.400271      0.100343
O       5.75139      3.72814      2.77598        -0.340610      1.194316     -0.459723
O       5.84501      3.82768     15.32085        -0.476356     -0.765913     -0.331259
O       5.65874      0.01362      2.53960         0.358441      0.522805      0.405323
O       5.76213      0.02224     15.29536        -0.350769     -0.658273     -0.183411
O       5.61720      3.72111      6.91368         0.252837      0.168717     -0.737091
O       5.76591     15.17113      7.01686        -0.334802     -0.011533     -0.560934
O       5.58314      3.68753     11.05513         0.316533      0.495201     -0.438560
O       5.77901     15.10120     11.30597        -0.406885      1.403495     -0.952628
O       5.53677      7.57954      2.59541         1.051572     -0.032150     -0.537635
O       5.69536      7.49669     15.47249        -0.391872      1.350275     -0.578707
O       5.57470      7.56973      6.76158         0.803311      0.137143     -0.306419
O       5.53261      7.53481     11.18384         0.184403      0.588653     -0.738862
O       5.70522     11.50486      2.61701         0.155173     -2.151671     -0.272075
O       5.70376     11.32967     15.52906        -0.001333      0.194106     -0.735724
O       5.50390     11.42744      6.87167         0.188004     -0.298420     -0.426587
O       5.66303     11.40049     11.17005        -0.196575     -0.235190     -0.366408
O       9.47270      3.79842      2.61756         0.119283     -0.243117     -0.101135
O       9.43850      3.76919     15.25220         0.424528      0.538834     -0.002368
O       9.49277     15.19955      2.62701        -0.328222     -0.223920     -0.606159
O       9.43193     15.14529     15.44801         0.153034     -0.142635     -0.421086
O       9.53470      3.84768      6.73043         0.117521     -0.153002      0.137286
O       9.46459      0.04556      6.80962        -0.139059      0.091849      0.160479
O       9.56203      3.88575     11.17431        -0.441156     -1.575456     -0.162042
O       9.43691      0.03035     11.04039        -0.157042     -0.394589     -0.131090
O       9.50960      7.52683      2.57284         0.052787      0.712545     -0.349125
O       9.44273      7.58062     15.58777         0.657581     -0.149404     -0.928553
O       9.39641      7.69796      6.74928         0.289330     -0.828620     -0.068891
O       9.42018      7.55985     11.12373        -0.355289     -0.082223     -0.619213
O       9.35253     11.36679      2.58528         0.479719      0.242842     -0.408176
O       9.42994     11.28164     15.26028         0.484710      0.853536     -0.124410
O       9.39622     11.48189      6.96725         0.490389     -0.692878     -0.768896
O       9.39664     11.32825     11.12803         0.391226     -0.157201     -0.233144
