  # total energy = -7863.01203852 
CRSYTAL
PRIMVEC
    15.010000000000000    0.0000000000000000    0.0000000000000000
     0.0000000000000000   15.010000000000000    0.0000000000000000
     0.0000000000000000    0.0000000000000000    16.400000000000000
PRESSURE
16.9483 17.0207 8.46502 -0.063398 -0.274005 -0.019716
PRIMCOORD
320 1
Pb       3.64854      3.58588      4.12892         0.035972      0.840323     -0.629592
Pb       3.73180      3.74476     16.30913        -0.026984      0.659822      0.408439
Pb       3.81983     14.92899      4.18993        -0.429985     -0.268577     -0.351755
Pb       3.80300      0.06522     16.34857         0.043221     -0.206838      0.312649
Pb      14.96973      3.79547      4.26077         0.647306     -0.365927     -1.171657
Pb      14.90181      3.81470      0.05928         0.574990     -0.331296      0.023314
Pb      14.93602     14.99671      4.29013         0.321046     -0.333694     -0.794791
Pb       0.03462      0.03833     16.25658        -0.542813      0.165241      0.111948
Pb       3.77264      3.71196      8.12285         0.003832     -0.014948      1.335717
Pb       3.85081     14.99298      8.31963        -0.639156      0.050573      0.360276
Pb       0.07976      3.70847      8.07801        -0.070255      0.064839      0.942477
Pb       0.16035     14.96766      8.28319        -0.370542      0.070504     -0.238899
Pb       4.01216      3.72228     12.35274        -0.696909      0.222143     -0.248811
Pb       3.72703      0.00505     12.33508        -0.372362      0.042031     -0.728298
Pb       0.03323      3.79596     12.27765         0.300611      0.268887     -0.349694
Pb      14.95411     14.99124     12.23467         0.592415     -0.119509      0.311876
Pb       3.61275      7.66708      4.23333         0.757741     -0.519343     -0.677315
Pb       3.77121      7.54547     16.37830        -0.454671     -0.259538     -0.219265
Pb      14.86426      7.55741      4.13082        -0.019484     -0.637480     -0.235027
Pb      14.92701      7.46274      0.03508         0.512712      0.180226     -0.582387
Pb       3.68473      7.52485      8.31758         0.619860     -0.126539     -0.596009
Pb       0.01452      7.47613      8.07561        -0.320173      0.113849      0.607480
Pb       3.75137      7.30916     12.40602        -0.381992      0.260195     -0.002026
Pb       0.04363      7.49544     12.23438        -0.176600     -0.604187      0.999701
Pb       3.58862     11.22809      4.02457         0.442612     -0.254580      0.012160
Pb       3.67560     11.31731      0.07150         0.234053     -0.663550      0.049303
Pb      14.84261     11.18360      4.20226        -0.063357      0.860423     -0.923639
Pb      14.95133     11.28300      0.01626         0.053779     -0.388011      0.132751
Pb       3.52709     11.18558      8.25933         0.601998      0.079374     -0.177684
Pb      14.96627     11.15204      8.13228        -0.110735      0.288932      0.448141
Pb       3.68703     11.10696     12.48962         0.031530      0.218634     -0.686354
Pb      14.96943     11.17973     12.31334         0.066184      0.208305     -0.132425
Pb       7.45094      3.84229      4.28487         0.128543     -0.144153     -0.220109
Pb       7.50375      3.73614      0.16571         0.273967      0.032756     -0.262951
Pb       7.50799      0.05580      4.26997         0.045905     -0.167416     -0.790115
Pb       7.60670      0.03790     16.39890        -0.269342     -0.224250      0.803947
Pb       7.61907      3.80160      8.18272        -0.523546     -0.385004      0.553954
Pb       7.42279     14.86827      8.32581         0.584201      1.049072      0.169784
Pb       7.59059      3.66432     12.39279        -0.384068      0.400434     -0.035269
Pb       7.52003      0.01215     12.27728        -0.026049      0.137777     -0.361402
Pb       7.35939      7.46896      4.20340        -0.311508     -0.410638     -0.256453
Pb       7.49075      7.39709      0.08937         0.278481      0.520721      0.746976
Pb       7.50925      7.46478      8.08993        -0.090079     -0.976029      0.591945
Pb       7.58330      7.49615     12.34771         0.083823      0.205244     -0.240709
Pb       7.17833     11.21435      4.19792         0.761361      0.782557     -0.794535
Pb       7.38487     11.29593      0.04266         0.415504     -0.034647      0.036851
Pb       7.38595     11.09952      8.24699         0.086083      0.088771      1.105370
Pb       7.51640     11.21220     12.48303         0.113162     -0.189042     -0.519457
Pb      11.38481      3.67824      4.25160        -0.592123      0.281027     -0.932844
Pb      11.35599      3.84194      0.08191        -1.128287     -0.773836      0.158427
Pb      11.27768     15.00800      4.22303        -0.331544     -0.029115     -0.885496
Pb      11.37334      0.12089     16.34357        -0.395547      0.043493      0.748634
Pb      11.45109      3.73119      8.25646        -0.908393     -0.258682      0.479852
Pb      11.32688     14.90150      8.21017        -0.649249      0.846397      0.750159
Pb      11.32354      3.74776     12.23779        -0.461081     -0.369756      0.200683
Pb      11.31501     14.86213     12.33218        -0.346050      0.486537     -0.522058
Pb      11.16479      7.49145      4.15445        -0.423295      0.056799     -0.224826
Pb      11.24587      7.41906      0.11024        -1.099759      0.606671      0.788994
Pb      11.22797      7.52638      8.12021        -0.217595     -0.190772      0.298716
Pb      11.24627      7.44578     12.41261        -0.212923      0.247419     -0.960153
Pb      11.03480     11.31973      4.20906         0.683174      0.016541     -0.818776
Pb      11.12279     11.33703      0.00884        -0.262552      0.090226      0.874896
Pb      11.13262     11.23689      8.21484         0.694551     -0.024106      0.099269
Pb      11.26299     11.13833     12.43848        -0.457146      0.267124     -1.149118
Ti       1.77786      1.88454      1.96309         0.995463      0.596092      1.060152
Ti       1.94369      1.94776     14.35728        -1.857201     -0.036704     -0.880366
Ti       1.81054     13.15645      2.05506         0.352444     -0.056007      0.162319
Ti       1.88421     13.12627     14.47509        -1.013024      0.117228     -1.903193
Ti      13.18109      1.83374      2.18443        -0.939443      0.717057     -1.011653
Ti      13.16018      1.94477     14.26650         0.235788     -0.557646      0.124783
Ti      13.11228     13.09700      1.95979        -0.108010     -0.051567      1.722686
Ti      13.10142     13.06184     14.35311         0.635798      1.115696      0.673153
Ti       1.91375      1.82271      6.21078         0.097414      0.612738      0.368235
Ti       1.92357     13.13326      6.11862        -0.372665     -0.353024      0.987845
Ti      13.13044      1.86070      6.23819         0.418167      0.409688      1.475545
Ti      13.07987     13.14257      6.27669         1.102138     -0.866407     -1.132180
Ti       1.79682      1.85412     10.22186         1.426036      0.725709      0.658827
Ti       1.85891     13.07739     10.24576         0.307872      0.737209      0.755924
Ti      13.09332      1.82857     10.21151         0.367955      1.205241     -0.187394
Ti      13.13237     13.08930     10.21016         0.320171     -0.327953      1.213341
Ti       1.86595      5.68491      2.10131        -0.304558     -2.925843     -0.595145
Ti       1.86521      5.65956     14.48536        -0.302756      0.312963     -0.761438
Ti      13.07791      5.63231      2.04481         0.347195     -1.478484      2.501371
Ti      13.07847      5.68288     14.37233         1.534778     -0.534600     -0.047402
Ti       1.90262      5.62399      6.08533         0.149833      0.442452      0.370451
Ti      13.14619      5.58149      6.15718        -0.405804      0.822067      0.129010
Ti       1.91028      5.62509     10.14071        -0.344946     -0.669065      2.494764
Ti      13.08819      5.67992     10.19630         0.874150     -2.159292     -0.040966
Ti       1.64932      9.29745      2.01785         2.014395      1.277911     -0.090500
Ti       1.78350      9.37627     14.38948         0.072227     -0.796215      0.005563
Ti      12.90819      9.30875      1.98538         0.095273      1.319388      0.789743
Ti      12.99289      9.39745     14.41035         2.755972     -1.173491     -1.124343
Ti       1.79236      9.39314      6.17772         0.699722     -0.274450     -0.261054
Ti      13.00628      9.40654      6.10493         0.345173     -0.649087      0.479323
Ti       1.90040      9.31926     10.32720        -0.672253      0.050751      0.286449
Ti      13.11732      9.30027     10.27070         0.390217      0.940560      0.627473
Ti       5.63504      1.87931      2.16567         0.181172     -0.121072     -0.836725
Ti       5.72031      1.80662     14.46123         0.473076      1.337378     -0.448250
Ti       5.55900     13.15936      2.05430         0.483664     -0.946329     -0.046532
Ti       5.59901     13.10604     14.38052         0.890022     -0.238915      0.323780
Ti       5.60954      1.80919      6.20844         1.141233      0.169654      0.622705
Ti       5.62028     13.02317      6.31223        -1.070017      0.726911     -1.358291
Ti       5.62690      1.87598     10.28026        -0.145179     -0.061858      0.201088
Ti       5.63421     13.02784     10.33931        -0.802262     -0.034679      0.367119
Ti       5.55043      5.58539      2.09938        -0.339589     -0.148237      0.678231
Ti       5.77027      5.63211     14.41654        -1.547289     -0.781503     -0.310868
Ti       5.52564      5.52305      6.21564         1.295582      1.458700     -0.747026
Ti       5.65365      5.64869     10.23140        -0.696404     -1.665732     -0.200818
Ti       5.53243      9.35161      2.04562        -0.597793     -0.584681      0.639771
Ti       5.63816      9.35195     14.42205        -0.882198     -0.508079     -0.940051
Ti       5.58624      9.33878      6.23386        -1.836867     -1.181007      0.479664
Ti       5.63696      9.22028     10.36583         0.040262      2.003234      0.094715
Ti       9.36826      1.90290      2.14174         0.829704     -0.610370      0.139559
Ti       9.43109      1.97988     14.38015         0.028970      0.000902     -0.321666
Ti       9.33765     13.15506      2.22883         0.331461      0.330486     -0.919998
Ti       9.39309     13.25815     14.39588        -0.657376     -1.503613     -0.340453
Ti       9.36819      1.90557      6.21722         0.007352     -0.508848      0.288561
Ti       9.29562     13.16152      6.23146         0.377151      0.936113     -0.474266
Ti       9.35559      1.85029     10.24367         0.729198      0.657252     -0.879825
Ti       9.35654     13.05571     10.22280         0.574870      0.405216      0.765023
Ti       9.31408      5.62377      2.21003         0.240336      0.560887     -0.864254
Ti       9.41358      5.74997     14.45563        -0.675467     -1.861447     -0.366724
Ti       9.44996      5.62723      6.13840        -1.460503     -0.296430      0.379513
Ti       9.34012      5.54520     10.29542         0.471901      0.896149     -0.826852
Ti       9.20945      9.48612      2.17341         0.888835     -1.495540     -0.667070
Ti       9.40845      9.40997     14.48361        -2.032638      0.388320     -0.612729
Ti       9.24199      9.45188      6.10758         0.943321     -1.198032      0.526819
Ti       9.39153      9.36080     10.13739        -0.558194     -0.999001      1.908557
O       1.68740      1.94625      0.15699         1.080177     -0.356780     -0.440703
O       1.70853      1.75237     12.52332         0.390659      0.636346      0.476609
O       1.91968     13.02013      0.16802        -0.090090      0.488981      0.325613
O       1.80618     13.16722     12.58974        -0.084283     -0.064473      0.140564
O      13.09223      1.86152      0.32360         0.087643      0.062720     -0.096627
O      13.11847      2.01763     12.42952         0.488377     -0.612407      0.720947
O      12.98435     13.18321      0.18683         0.638823     -0.245008     -0.001186
O      13.09836     13.01111     12.55224        -0.175871      0.161265     -0.338105
O       1.89971      1.78530      4.42110         0.139355     -0.068996     -0.695232
O       1.94799     13.08117      4.32363        -0.251262      0.514734     -0.716349
O      13.22530      1.86344      4.44770         0.099022     -0.189261     -1.007029
O      13.11732     13.04181      4.38906        -0.048516      0.084659      0.946607
O       1.95290      1.81103      8.39461         0.002948      0.338207      0.072023
O       1.80294     13.11229      8.40316         0.565762     -0.554479      0.390956
O      13.14515      1.80475      8.35279        -0.018178      0.263453      0.252680
O      13.14931     13.11563      8.43383         0.046967     -0.171812     -1.808196
O       1.79890      5.44073      0.21151         0.162474      0.691176      0.649753
O       1.73718      5.72548     12.64174         0.676763     -0.318825     -0.435258
O      13.18207      5.67983      0.25965        -0.744087     -0.012966     -1.173790
O      13.00963      5.62096     12.58974         0.068719     -0.228577     -0.751189
O       1.82038      5.66125      4.28049         0.216181      0.234726     -0.113626
O      13.07267      5.56030      4.29820         0.227382      0.460926      1.186359
O       1.83740      5.83500      8.42468         0.267134     -0.715999     -1.533424
O      13.01171      5.65980      8.35795         0.417949      0.394246      0.156817
O       1.74616      9.29558      0.19663         0.249683      0.562983      0.457487
O       1.80467      9.25545     12.54960         0.065703      0.522017     -0.421751
O      12.97097      9.11133      0.16373         0.467991      0.834373      0.545568
O      13.12927      9.31492     12.48265        -0.628179      0.691900      0.856642
O       1.82790      9.29617      4.30484        -0.823292      0.026844      0.157723
O      13.05604      9.47274      4.29549         0.128250     -0.340434     -0.217304
O       1.88848      9.32427      8.44139        -0.245438      0.392334      0.095524
O      13.23762      9.37550      8.48925        -0.666270     -0.257883     -0.723503
O       5.75563      1.66956      0.26227        -0.909083      0.782026      0.452297
O       5.89036      1.85850     12.62130        -0.621811     -0.121440     -0.481662
O       5.53248     13.12265      0.16794        -0.544075      0.062107      1.091770
O       5.76494     13.00406     12.57655        -0.330658      0.410459     -0.314673
O       5.71860      1.93066      4.38475        -0.678129     -0.570961     -0.847713
O       5.53731     13.07908      4.42233         0.167848      0.017613      0.550546
O       5.47807      1.87668      8.47646         0.333370     -0.667384     -0.731750
O       5.59513     13.20174      8.47351         0.278981     -0.766806     -1.085354
O       5.71645      5.65349      0.26732        -0.260670     -0.607468     -0.381398
O       5.57913      5.62811     12.57440         0.408591      0.240283      0.286959
O       5.59016      5.50069      4.36423        -0.255885     -0.030318      0.019066
O       5.57702      5.66875      8.40991         0.382167     -0.149091      0.024169
O       5.47945      9.30917      0.24210         0.423487      0.320713     -0.009177
O       5.59132      9.36225     12.51147         0.481835     -0.281500      0.472257
O       5.62026      9.46562      4.43380        -0.228723     -0.872847     -0.644074
O       5.62236      9.23685      8.48708        -0.091765      0.823922     -0.485022
O       9.41897      1.77815      0.27855         0.223465      0.696657     -0.162685
O       9.24120      1.91284     12.52785         0.349856     -0.595085      0.178717
O       9.48751     13.10135      0.35616        -0.507848     -0.183676      0.052750
O       9.35957     12.98357     12.54095         0.271835      1.195181      0.347644
O       9.30597      1.84214      4.34222         0.225446     -0.105743      0.489210
O       9.40419     13.17376      4.35501         0.051444      0.479314      0.951424
O       9.36961      1.98084      8.38487         0.037454     -0.004753      0.317612
O       9.41351     13.19907      8.38305        -0.381746     -0.831840      0.278052
O       9.30185      5.57818      0.22247        -0.151453      0.161736      0.590419
O       9.54413      5.65294     12.59281        -0.771394      0.590738      0.050246
O       9.46756      5.58797      4.27694        -0.092787      0.187637     -0.068774
O       9.29775      5.48838      8.40987         0.503128      0.422066      0.639769
O       9.41597      9.46820      0.33891        -0.580822      0.153132     -0.775171
O       9.33273      9.24347     12.60812         0.290717      0.472504      0.375009
O       9.22518      9.21854      4.33844         0.381375      0.595485     -0.039234
O       9.30579      9.33496      8.35184         0.102903      0.639969     -0.596198
O       3.78707      2.27746      2.18652        -0.064083     -1.370974      0.138325
O       3.79726      1.70932     14.43787        -0.540711     -0.387303      0.684927
O       3.70173     12.85444      2.33296        -0.435159      0.313687     -0.380123
O       3.71856     13.39286     14.43770         1.103262     -0.159702      0.785934
O       0.01237      1.70701      2.39799        -0.229743     -0.975298      0.305035
O      15.00599      2.27917     14.67441        -0.611617     -1.133562     -0.863395
O       0.00936     13.32103      2.36037        -1.083862      0.165059     -0.051876
O      14.94126     12.94066     14.73311         0.670038     -0.496880     -0.209911
O       3.81171      2.13191      6.46712        -1.381373     -0.331019     -0.639605
O       3.77787     12.72458      6.35516        -0.179402      0.443285      0.658318
O       0.09532      1.92175      6.50821        -1.241749     -1.039032     -0.293324
O       0.06259     13.20220      6.27749        -1.563827     -0.037147      0.407021
O       3.78943      1.97691     10.74434        -0.475857     -0.220377     -0.296785
O       3.74791     12.81032     10.49077         0.134531      0.593451      0.168426
O      14.98389      1.66741     10.41455         0.373841     -0.218940      0.101778
O      14.97750     13.34241     10.43620         0.985858      0.117143      0.323728
O       3.69801      5.26469      2.32984         0.594811      0.075984     -0.254559
O       3.72424      5.79227     14.65222         1.186876      0.391576      0.153649
O      14.95693      5.85798      2.29035         0.047636      0.579083      0.267130
O      14.94501      5.30592     14.57506        -0.714609      0.627029      0.297483
O       3.72852      5.34707      6.51437        -0.657967      0.502565     -0.608007
O       0.04189      5.68730      6.42481        -1.019985      0.918383     -0.173679
O       3.78643      5.40712     10.54719        -0.937349     -0.353710      0.121470
O       0.01981      5.94274     10.47254        -0.749089     -0.604723     -0.280250
O       3.67630      9.43821      2.37605        -0.468067      0.104885     -0.231616
O       3.74530      9.09693     14.49745        -0.039885      0.183435      0.476287
O      14.89113      8.96912      2.27107        -0.692897     -0.076474     -0.028642
O      14.93094      9.66949     14.62759        -0.103206     -0.124490      0.009126
O       3.69304      9.65543      6.28778         0.795341     -0.340905      0.621466
O      14.94861      9.26026      6.41330         0.206532     -0.083941     -0.334298
O       3.70966      9.49927     10.55341         0.671412      0.979033     -0.060265
O      15.00826      8.98904     10.52652         0.051570      0.892697     -0.587790
O       7.55283      1.49453      2.26047        -0.651435     -0.068004      0.307009
O       7.52718      2.07714     14.66448         0.747024      0.434107      0.474965
O       7.42566     13.22436      2.41349         0.247531      0.486122     -0.499773
O       7.47277     12.89182     14.80775         0.640164      0.302976     -0.740102
O       7.48987      1.50898      6.37362        -0.305196      0.225491      0.345356
O       7.48791     13.48341      6.36660        -0.543464     -0.095440      0.289369
O       7.51610      1.68322     10.37450        -0.092935     -0.355794      0.424922
O       7.55661     13.26926     10.39187         0.049773      0.615062      0.206275
O       7.45174      5.89299      2.35229         0.756165     -0.171957      0.225495
O       7.56886      5.27036     14.58623        -0.178171      0.418890      0.076137
O       7.52419      5.77387      6.27668        -0.630445      0.075148      0.356287
O       7.43831      5.91773     10.56549         1.344395     -0.299669      0.031327
O       7.39877      9.07079      2.38688        -0.132714      0.473664     -0.362813
O       7.43636      9.70020     14.70016         1.415683     -0.417604      0.050695
O       7.45929      9.11154      6.47337         0.246928      0.127581     -0.281285
O       7.48171      9.02137     10.47015         0.670286      0.055168      0.138307
O      11.33319      2.15556      2.47992        -1.119429     -0.280209     -0.271797
O      11.25674      1.55721     14.39945         0.411996     -0.235884      0.491211
O      11.33720     12.77521      2.37993        -1.104905      0.064436      0.085944
O      11.26254     13.43319     14.65149        -0.735148     -0.314879     -0.626584
O      11.27941      2.20002      6.31616         0.010179     -0.540378      0.013670
O      11.20202     13.03909      6.45765         0.795960     -0.701292      0.003531
O      11.28729      2.14422     10.31243        -0.891998     -0.175407      0.718534
O      11.31430     12.92620     10.43140        -1.764125     -0.176000      0.473976
O      11.17897      5.34372      2.19164         0.751721     -0.357371      0.152506
O      11.22932      5.93947     14.73599         0.529489     -0.242971     -0.188113
O      11.25790      5.28098      6.39222         0.581177      0.906084     -0.145203
O      11.20050      5.26763     10.52770         0.583139      0.957628     -0.759241
O      11.14545      9.77582      2.32815         0.711400     -0.600001      0.261466
O      11.20437      9.13308     14.62117        -0.549135     -0.234341      0.007068
O      11.18316      9.57943      6.46447        -0.685686     -0.289019     -0.115579
O      11.23549      9.56748     10.37545        -0.009225      0.422100      0.208063
O       1.64149      3.68340      2.32871        -0.306801      0.747306      0.570355
O       2.06950      3.81182     14.57611         0.485433     -1.750360     -0.276578
O       2.08083      0.00724      2.21451         0.432782     -0.324222      0.057103
O       1.66084     14.99500     14.52990        -0.105028      0.979203      0.923108
O      13.45529      3.74636      2.48913        -0.947222      0.438609     -0.772943
O      12.77290      3.71145     14.66468         0.260778      1.026575     -0.309319
O      12.85744     15.00238      2.34568         0.389204     -0.921210      0.237448
O      13.41200     14.97551     14.53070        -0.285007      1.067244     -0.124291
O       1.72484      3.82211      6.41369         0.634130     -1.177298      0.050121
O       1.88296     14.99548      6.56009         1.164946     -0.547264     -0.786859
O      13.36955      3.75108      6.46028        -0.464986      0.377444     -0.338129
O      13.06436      0.01384      6.48733         0.037887     -0.841480     -0.557034
O       1.64538      3.70417     10.31025         0.157339      1.382868      0.639905
O       2.07274      0.02145     10.37832         0.044232     -1.606258      0.610417
O      13.29075      3.75240     10.38563         0.616535      0.565344      0.264714
O      12.98815      0.00618     10.57514        -0.455422     -0.730043      0.223961
O       2.10018      7.42923      2.17380        -0.022244      1.565336      0.408536
O       1.71221      7.56199     14.71210        -0.673954     -1.297776      0.279591
O      12.68351      7.42018      2.40535         0.709765      1.118564     -0.306083
O      13.29681      7.56605     14.51696         0.263068     -1.591983      0.317624
O       2.13807      7.51364      6.41805        -0.606902      0.150596     -0.348734
O      12.99497      7.55445      6.38441        -0.101505     -1.388386     -0.105551
O       2.19482      7.47091     10.48917        -0.333107      0.305879      0.222574
O      12.79734      7.42430     10.51008        -0.207098      1.230899      0.057018
O       1.51984     11.21331      2.20054         0.439707     -0.570018      0.388788
O       2.14989     11.19037     14.57402        -0.050155      1.202073      0.248691
O      13.36430     11.11867      2.14191         0.632964      0.909419     -0.017163
O      12.79257     11.21539     14.65532         0.058144      0.793327     -0.092417
O       1.73506     11.24233      6.46230        -0.510785     -0.131313     -0.028623
O      13.25308     11.18627      6.49063        -0.063608      1.712175      0.029570
O       1.66477     11.28671     10.68157        -0.168267     -1.596603     -0.723098
O      13.35861     11.24517     10.49899         0.179597     -0.877607      0.001277
O       6.00370      3.69070      2.38403        -0.252070     -0.051003     -0.685498
O       5.40805      3.76262     14.58047         0.196579     -0.403027      0.437277
O       5.31074     14.92491      2.39676         0.032074      1.461783     -0.066643
O       5.86811     14.99372     14.64120        -0.285234     -0.927637     -0.267617
O       5.82868      3.72929      6.49343         0.175079     -1.280802      0.065733
O       5.16942     14.96398      6.41137         1.053102     -0.170577     -0.343102
O       5.82743      3.70230     10.47234         0.032443      0.959295      0.677502
O       5.60700     14.93991     10.55970        -0.669978      0.235147      0.319244
O       5.40526      7.38796      2.37194        -0.485552      1.382420      0.176338
O       5.91729      7.48842     14.76435        -0.228788     -0.306998     -0.671565
O       5.34574      7.41608      6.35678         0.291545      1.355718     -0.021755
O       5.29187      7.44906     10.46125         0.049402      0.114404      0.547037
O       5.62850     11.21499      2.38160         0.559248     -0.104565     -0.412264
O       5.43730     11.17599     14.64927        -0.869216      1.746136      0.204625
O       6.03594     11.16288      6.40106        -0.784264      1.418214      0.554300
O       5.96776     11.24286     10.52370        -0.332487     -1.107024     -0.235132
O       9.02041      3.72790      2.30275         0.264475      0.233121     -0.059107
O       9.74066      3.77417     14.51420        -0.234041      0.069938      0.657614
O       9.74101     14.97883      2.38873        -0.331713     -0.103872      0.087583
O       9.07966      0.02545     14.63944         0.499009     -0.035971     -0.641141
O       9.05189      3.75555      6.42290         0.625914     -0.522782     -0.754426
O       9.69669      0.05003      6.59433        -0.722549     -0.315302     -1.180927
O       9.13601      3.73969     10.65686        -0.091956      0.077332     -0.496582
O       9.66007      0.06486     10.44799        -0.177754     -1.966963      0.458128
O       9.74131      7.58069      2.30404        -0.822920     -1.019497      0.074935
O       8.99622      7.55494     14.63057         0.366248     -0.342257      0.272085
O       9.47147      7.45636      6.38478         0.700921      0.865927      0.272201
O       9.64952      7.47116     10.32745        -0.063025     -0.023306      0.600548
O       9.06705     11.26800      2.58842         0.352772      0.220212     -0.283630
O       9.56558     11.30957     14.52707         0.403024     -0.630926      0.522731
O       9.01441     11.29011      6.35732         0.581279     -0.137142      0.208011
O       9.08017     11.20640     10.56469         0.745888     -0.084822     -0.671501
