  # total energy = -7874.08457274 
CRSYTAL
PRIMVEC
    15.2000000000000000    0.0000000000000000    0.0000000000000000
     0.0000000000000000   15.2000000000000000    0.0000000000000000
     0.0000000000000000    0.0000000000000000    17.000000000000000
PRESSURE
8.44008 7.93871 -2.62744 0.254651 -0.081365 0.062076
PRIMCOORD
320 1
Pb       3.61697      3.85174      4.33496         0.370296     -0.364556     -0.435895
Pb       3.97272      3.90582     16.98484         0.291630     -0.014443      0.160557
Pb       3.63746      0.21643      4.31999        -0.210447     -0.653767      0.116649
Pb       3.86389     15.16482     16.91281        -0.091763     -0.279903      0.679283
Pb       0.09538      3.87911      4.21089        -0.853715     -0.177870      0.033336
Pb       0.21865      3.96284     16.93375        -1.152078     -1.316326      0.323713
Pb      15.13655      0.23386      4.53315         0.715413     -0.422664     -0.803096
Pb       0.07189     15.08163     16.96417        -0.315267      0.053440      0.062652
Pb       3.95243      3.88911      8.34075        -0.566049     -0.681596      0.565193
Pb       3.84428     15.01461      8.73325        -0.070307      0.156204     -0.735054
Pb       0.16485      3.59015      8.68165        -0.136875      0.711313     -0.178683
Pb      14.88374     15.15021      8.47168         1.142761      0.034431      0.972579
Pb       3.85967      3.57839     12.52464        -0.482704      1.211642      1.186516
Pb       3.81570      0.08302     12.87786         0.223887     -0.480699     -0.384787
Pb      15.13448      3.88814     12.67989         0.174728     -0.668226      0.190075
Pb       0.08688     15.19539     12.89562        -0.422600      0.274907     -0.525066
Pb       3.70899      7.64705      4.35730        -0.244005     -0.169038     -0.419755
Pb       3.70682      7.64262     16.95161         0.917625     -0.338641      0.474073
Pb      15.06538      7.81131      4.38356         0.347460     -0.253748     -0.593734
Pb      15.05362      7.43579     16.87098         0.688542      0.967990      0.073065
Pb       3.86479      7.58266      8.32028        -0.177845     -0.106377      0.618176
Pb      15.03864      7.51830      8.48585         0.046714      0.017808      0.501191
Pb       3.64023      7.45596     12.67674         0.946699      0.164371      0.115003
Pb       0.03230      7.45086     12.82363        -0.439037     -0.193967     -0.390948
Pb       3.53039     11.45556      4.36340        -0.092905     -0.021669     -0.086125
Pb       4.07171     11.43329      0.23860        -0.702099      0.135098     -0.549771
Pb      15.18727     11.46809      4.20733        -0.551252     -0.292980      0.128323
Pb       0.13114     11.32916     16.83274        -0.056062      0.179173      0.780636
Pb       3.63539     11.37593      8.57593         0.497546      0.527239     -0.219349
Pb      15.13352     11.35433      8.63362        -0.305871      0.027415     -0.356203
Pb       3.71570     11.25910     12.66931        -0.092698      0.183133      0.282167
Pb      15.10411     10.98633     13.02522         1.105694      1.311578     -1.052918
Pb       7.55525      3.84222      4.28941        -0.142369     -0.431180     -0.054258
Pb       7.61437      3.79450      0.14144        -0.440906     -0.246928     -0.371904
Pb       7.55497     15.08020      4.24200         0.138458      0.550945     -0.355967
Pb       7.69827     15.08156     16.95837        -0.226111      0.353998      0.357696
Pb       7.70051      3.55812      8.43356        -0.172532      0.824355      0.128554
Pb       7.66162      0.05246      8.55686        -0.436954     -0.176531      0.016819
Pb       7.73007      3.72128     12.78252        -0.904713      0.523582      0.043912
Pb       7.58530     15.09799     12.86771        -0.167454      0.062828     -0.686942
Pb       7.73100      7.44929      4.04068        -0.264184      0.726249      0.958508
Pb       7.70653      7.71903      0.15362        -0.849317     -0.337753     -0.699055
Pb       7.54018      7.63150      8.25903         0.388497      0.155335      1.445126
Pb       7.47372      7.65650     12.62989         0.008271     -0.458940      0.308103
Pb       7.45779     11.36494      4.31366         0.728282     -0.302963     -0.046528
Pb       7.51765     11.48171     16.99962        -0.219447     -0.235517     -0.233703
Pb       7.62524     11.49912      8.67369        -0.288552     -0.200179     -0.786567
Pb       7.64695     11.35901     12.71697        -0.547241      0.137292     -0.006800
Pb      11.34152      4.05695      4.06452         1.011051     -1.538511      0.937322
Pb      11.28766      3.60413     16.94708         0.619157      0.231297      0.376647
Pb      11.51031     15.14979      4.13311        -0.554987      0.115106      0.127517
Pb      11.42177      0.00538     16.98348        -0.104098     -0.038365     -0.116169
Pb      11.47044      3.79081      8.46680        -0.476331     -0.214317      0.167910
Pb      11.34458      0.03532      8.46533        -0.101214     -0.024686      0.363554
Pb      11.25705      3.58713     12.77404         0.809703      0.842262      0.379703
Pb      11.38601      0.01421     12.62989         0.247881     -0.098702      0.667038
Pb      11.49210      7.46189      4.08333        -0.120773      1.435359      0.630945
Pb      11.42090      7.59130     16.93445        -0.308521     -0.182787     -0.069110
Pb      11.30072      7.51141      8.71877         0.088827      0.247001     -0.634896
Pb      11.39618      7.66655     12.97034        -0.468422     -0.963221     -0.460065
Pb      11.36652     11.29817      4.18545        -0.054538     -0.088126      0.029498
Pb      11.49155     11.43881     16.69158        -0.367597     -0.063999      1.148494
Pb      11.33607     11.38652      8.52837        -0.214053      0.355471     -0.355625
Pb      11.24464     11.13452     12.45125         0.030929      1.475030      1.628824
Ti       1.89991      1.90132      2.07635        -0.530301     -0.076203      0.636054
Ti       1.94306      1.93082     15.01003         0.063623     -0.666550     -1.417402
Ti       1.83258     13.35128      2.32327         0.027907      0.076035     -1.509103
Ti       1.85040     13.28301     14.92436         1.459865     -0.263555     -1.201250
Ti      13.35139      1.84327      2.17961         0.021416      1.657517     -1.007186
Ti      13.38173      1.87792     15.03222        -0.813098     -0.400546     -1.288102
Ti      13.26740     13.25805      2.16901         0.503032      0.121499     -0.869553
Ti      13.31119     13.24041     14.83773        -0.355590      1.582382     -0.761658
Ti       1.86776      1.88876      6.66758         0.821968     -0.534737     -0.778196
Ti       1.70159     13.29610      6.68460         3.006509      0.639300     -1.564178
Ti      13.24328      1.99934      6.43178        -0.555788      0.123984     -0.640404
Ti      13.17081     13.29371      6.58042        -0.575642     -0.704580     -1.555671
Ti       1.88961      1.78297     10.75598        -0.241885      0.940039     -1.216798
Ti       1.79159     13.25844     10.84936        -0.532727     -0.344134     -1.001137
Ti      13.30318      1.90779     10.70012         0.084722     -0.417503     -0.259610
Ti      13.22612     13.22587     10.84628         0.780233      0.876814     -0.991187
Ti       1.85221      5.74140      2.25103         0.812084      0.626937     -0.721491
Ti       1.92050      5.65294     14.93745         0.839163      0.478345     -1.038114
Ti      13.36747      5.73338      2.15144         0.591988     -0.939483     -0.496857
Ti      13.26277      5.61286     14.95090        -0.971101     -0.149396     -1.399164
Ti       1.73054      5.71639      6.52382         1.354335     -0.243276     -0.399473
Ti      13.21344      5.77853      6.55020         0.293050     -1.573080     -1.450918
Ti       1.88287      5.70860     10.69308        -0.386841     -1.178068     -1.017939
Ti      13.16320      5.69584     10.80610         0.635286      0.187468     -0.380784
Ti       1.83665      9.47137      2.18092         0.129683     -0.048077     -0.649959
Ti       1.99271      9.45519     15.00791        -1.172137      0.186474     -0.587721
Ti      13.29270      9.50242      2.04921        -0.168719      0.169659     -0.148626
Ti      13.29467      9.47579     14.89426         0.320401     -0.903221      0.990046
Ti       1.78967      9.46696      6.59701        -0.783454      1.175794     -1.242696
Ti      13.16265      9.50146      6.56094         0.808751      0.108142     -1.234417
Ti       1.81297      9.45523     10.67213        -0.369028     -0.058790     -0.633813
Ti      13.23355      9.45616     10.75972         0.412711     -0.897964     -1.694522
Ti       5.66432      1.87864      2.30926         0.167001     -0.133779     -1.669517
Ti       5.71181      1.87392     15.04216         0.205988      1.080581     -0.814063
Ti       5.62387     13.27110      2.41944        -0.598920      1.726375     -1.476104
Ti       5.62033     13.30272     14.96819         0.316272     -0.778347     -0.609506
Ti       5.69669      1.81356      6.51235        -0.454067      0.013499     -0.698808
Ti       5.63413     13.25763      6.48779        -1.351537      1.055769     -0.740984
Ti       5.71633      1.88290     10.74026         0.743889     -1.185961     -1.254473
Ti       5.57201     13.23005     10.86568         0.683592      1.016742     -0.731145
Ti       5.68912      5.68247      2.37439        -0.525338     -0.113388     -2.279512
Ti       5.72854      5.69582     14.90856        -0.144422     -0.369433     -0.685167
Ti       5.72129      5.69850      6.49672         0.470606     -0.185010     -1.577148
Ti       5.73267      5.64935     10.67395        -0.157231      0.493204     -0.651238
Ti       5.61424      9.46568      2.42098         0.172391      0.015519     -1.786844
Ti       5.63864      9.43177     14.93856         0.477630      0.390297     -0.368317
Ti       5.59802      9.55275      6.42030         1.644885      0.301073     -1.037662
Ti       5.57423      9.48334     10.62866         0.375406     -0.686805     -0.120520
Ti       9.50779      1.93420      2.34430        -0.035811     -1.208663     -1.482429
Ti       9.47976      1.87941     15.00267        -0.381554     -0.910935     -0.625258
Ti       9.46286     13.20893      2.22564         0.600085      0.697281     -1.308227
Ti       9.53046     13.24966     14.92735        -0.507204      0.687908     -0.936279
Ti       9.52912      1.90318      6.35628         0.238729      0.102565     -0.857874
Ti       9.39107     13.34223      6.49178         0.854524     -0.942246     -0.825440
Ti       9.50447      1.92460     10.76889        -1.370409     -0.310978     -0.956795
Ti       9.45850     13.34929     10.74173        -0.581085      0.120966     -0.627121
Ti       9.55157      5.67093      2.11650        -0.433394      0.481270     -2.034642
Ti       9.46812      5.62498     15.01967         0.380619      0.697266     -1.008190
Ti       9.47843      5.71977      6.52469         0.369246     -0.387153     -0.639801
Ti       9.41159      5.66853     10.63511        -0.130431      0.868486     -0.762673
Ti       9.46446      9.47809      2.15525         0.730524      0.543265     -0.805795
Ti       9.45310      9.49872     14.98310        -0.693051     -1.071720     -0.613928
Ti       9.44480      9.48279      6.50098        -0.087473      0.721686     -1.653111
Ti       9.36124      9.44722     10.65633        -0.586142     -0.319276     -1.270405
O       1.82249      1.88707      0.28797         0.024863      0.303537     -0.116809
O       2.03977      1.81756     13.03497        -0.563122     -0.031823      1.273763
O       1.84226     13.33521      0.47539        -0.377347      0.016599      0.495858
O       1.91377     13.23355     13.03113        -0.525521      0.498687      1.540564
O      13.27459      1.81300      0.33399         0.337659      0.026528      0.030618
O      13.13583      1.94567     13.19248         0.408769     -0.448515      0.277212
O      13.30056     13.43081      0.33611        -0.141804     -0.691245      1.025421
O      13.26419     13.15464     13.01936         0.215898      0.470300      0.743642
O       1.94444      2.00416      4.76152        -0.093334     -0.203556      0.524501
O       1.92021     13.44838      4.74219        -0.483079     -1.087527      0.561322
O      13.15909      1.98807      4.59336         0.445257     -0.494739      0.625303
O      13.24743     13.18555      4.71585        -0.270171      0.685207      1.018446
O       1.84595      1.79775      8.83959        -0.436503      0.365954      0.821938
O       1.80651     13.32927      8.91745         0.138008     -0.556066      0.473015
O      13.30943      1.84885      8.83110        -0.014618      0.562005      1.303149
O      13.20196     13.30074      8.92732         0.222217     -0.161545      0.750523
O       1.74249      5.62717      0.36491         0.572665      0.584738      0.714470
O       1.85006      5.63469     13.10607         0.164983      0.471613      0.301905
O      13.22447      5.85355      0.33189         0.916983     -0.429740      0.138835
O      13.34771      5.78081     13.04895        -0.661308     -0.383594      1.247360
O       1.81707      5.77901      4.69645         0.507145     -0.590116      0.495492
O      13.29366      5.75341      4.67293        -0.356173      0.097482      0.614022
O       1.79924      5.68531      8.84630         0.123875      0.461806      0.813177
O      13.11516      5.74871      8.90676         0.772857      0.203529      0.731737
O       1.88534      9.43239      0.33004        -0.215921      0.212119      0.866315
O       1.95619      9.43589     13.15460        -0.230817      0.184953      0.225032
O      13.28974      9.52042      0.21422         0.161526     -0.089793      0.625462
O      13.31508      9.45892     13.06460        -0.623493     -0.078624     -0.072273
O       1.87439      9.57610      4.75174        -0.059647     -0.040899      0.013865
O      13.39867      9.46407      4.69718        -0.993312      0.277888      0.774045
O       1.86207      9.51755      8.83013        -0.288130     -0.434332      0.486819
O      13.21045      9.32983      8.87854         0.119959      0.465846      0.884068
O       5.66213      1.86031      0.40541         0.062363      0.395409      1.127165
O       5.66129      1.96288     13.16151        -0.111923     -0.670627      0.392480
O       5.69632     13.27342      0.36752         0.175661      0.011839      1.133629
O       5.63755     13.29036     13.11678         0.077225     -0.061034      0.692403
O       5.60717      1.90345      4.70092         0.170961     -0.324006     -0.119549
O       5.73665     13.34219      4.57244        -0.141446     -0.247317      0.980445
O       5.76255      1.94720      8.88844        -0.095091     -0.333820      0.298962
O       5.61034     13.29785      9.04146        -0.030375     -0.145274     -0.277998
O       5.68599      5.63088      0.37481        -0.009090     -0.225109      1.609162
O       5.67556      5.62070     13.08044        -0.077323      0.301591      0.853125
O       5.79878      5.91616      4.56944        -0.135181     -0.995295      0.799454
O       5.72981      5.68892      8.76172        -0.057721     -0.005679      1.018498
O       5.55178      9.55694      0.43221         0.413128     -0.007311      0.957135
O       5.65603      9.39821     13.10883        -0.363150      0.359114      0.923625
O       5.65654      9.54173      4.47624         0.394790      0.187435      1.586294
O       5.60643      9.44543      8.81837        -0.012288      0.198595      0.386097
O       9.51553      2.01296      0.39626        -0.287210     -0.260205      0.716608
O       9.39288      1.96948     13.11306         0.409917     -0.353634      0.411978
O       9.44408     13.34441      0.33078         0.228797     -0.694327      0.945801
O       9.45667     13.20439     13.10006        -0.138224      0.402899      0.377613
O       9.51677      1.98232      4.50807         0.214702     -0.177156      0.596076
O       9.49154     13.25222      4.63629        -0.285088      0.430682      0.940697
O       9.49908      1.90597      8.95582        -0.522085      0.029431      0.145437
O       9.49628     13.34533      8.89413        -0.672298     -0.262438      0.669666
O       9.48557      5.79718      0.25470         0.105359     -0.853274      1.223271
O       9.57111      5.54270     13.18115        -0.192044      0.656849      0.474859
O       9.54010      5.66287      4.62717         0.011827      0.224524      0.420158
O       9.38280      5.66009      8.78578         0.283226     -0.003780      0.681964
O       9.42187      9.47906      0.29971         0.456249      0.205512      0.254917
O       9.47666      9.39848     13.09323        -0.235748      0.181064      0.871597
O       9.49935      9.51093      4.63434        -0.222085     -0.072931      0.673729
O       9.35379      9.58289      8.81888         0.201376     -0.186098      0.722494
O       3.71399      2.05630      2.45220         0.459433     -0.400161      0.599797
O       3.77794      1.78411     15.32036         0.071599      0.492539     -0.061016
O       3.70945     13.32114      2.45646         1.286796     -0.258092      0.613629
O       3.76261     13.26062     15.36399        -0.076401      0.449939     -0.407276
O       0.07042      1.99319      2.55221        -0.786201     -0.458333      0.302745
O       0.03553      1.86538     15.11929         0.171043      0.180778      0.216650
O      15.15939     13.34133      2.56252        -0.701138     -0.177289      0.216340
O       0.00804     13.30732     15.30656        -0.162199     -0.156994     -0.327564
O       3.77881      1.85693      6.84170        -0.036681     -0.119246      0.078830
O       3.70945     13.32984      6.88570         0.772272      0.426878      0.199849
O      15.09627      1.89575      6.62021         0.341731      0.432316      0.524359
O      15.12615     13.24782      6.83134        -1.532254     -0.679305      0.288908
O       3.77455      1.81409     10.96606        -0.161590     -0.204819      0.063717
O       3.64615     13.33498     11.07601         0.907666     -0.265880     -0.115245
O      15.16278      1.97894     11.04637        -0.309400     -0.191222      0.016519
O      15.10901     13.24050     11.02856        -0.264914     -0.148684      0.151630
O       3.83381      5.78339      2.55269        -0.563024     -0.392411      0.206450
O       3.76767      5.69268     15.23584         0.245292     -0.151570      0.260445
O       0.08311      5.88733      2.64500        -1.621218     -0.469021     -0.488218
O       0.00096      5.67458     15.19323        -0.497034      0.198151      0.512548
O       3.84065      5.77460      6.74082        -0.400942     -0.213872     -0.070477
O      15.17528      5.61584      6.78100        -1.450854      0.437926      0.451767
O       3.77991      5.73061     10.94859        -0.247679      0.024436     -0.043083
O      15.16173      5.60564     11.14022        -0.360291      0.260471     -0.765111
O       3.80801      9.57222      2.60903        -1.178397     -0.192650     -0.079519
O       3.74661      9.47134     15.33964         1.469426      0.328359     -0.025125
O      15.15986      9.49841      2.55550         0.454709      0.140990     -0.185881
O       0.02498      9.48173     15.15455        -0.761789      0.073285      0.080104
O       3.80280      9.42381      6.64751        -0.498763     -0.284442      0.564322
O      15.08479      9.69966      6.73142         1.160866     -0.853939      0.894301
O       3.68831      9.45097     10.94244         0.402827     -0.536002      0.251477
O      15.07139      9.56197     11.02322         0.764234      0.327119     -0.033244
O       7.58456      1.97008      2.55758        -0.077137      0.123736      0.144160
O       7.55257      1.84393     15.33026         0.792581      0.157871     -0.013742
O       7.64958     13.27207      2.51427        -1.059109      0.283885      0.409207
O       7.61488     13.33467     15.21419        -0.389146     -0.132909      0.152713
O       7.63594      1.87823      6.67457        -0.254422      0.138032      0.457612
O       7.47936     13.20793      6.79002         1.469812      0.311879      0.242897
O       7.55512      1.87461     10.99144         0.324088      0.134403      0.416373
O       7.55659     13.22559     11.03445         0.038675     -0.108968      0.390840
O       7.66895      5.65066      2.39365        -0.545160      0.154218      0.580622
O       7.64462      5.72541     15.20772        -1.274756     -0.199049      0.204859
O       7.64531      5.57682      6.62282        -1.100634      0.270347      0.389288
O       7.54900      5.60805     11.07323        -0.489553      0.134305     -0.089923
O       7.63344      9.51041      2.35228        -0.657776     -0.076116      0.676854
O       7.51647      9.51877     15.27741         0.962875     -0.304675     -0.066292
O       7.52838      9.59349      6.74559         0.006975      0.283264      0.025358
O       7.45068      9.53363     11.04514         0.698183      0.364700     -0.063716
O      11.49580      1.98874      2.36471        -1.351956      0.208329      0.649062
O      11.32496      1.89375     15.29554         1.033746     -0.194427      0.147979
O      11.36494     13.30339      2.51913         0.444138      0.089710      0.188486
O      11.43980     13.34568     15.20441         0.071761     -0.438539      0.213560
O      11.35442      1.90018      6.84828         0.119316     -0.549168     -0.106266
O      11.28201     13.39281      6.96466         0.562172     -0.343987     -0.699363
O      11.32211      1.86346     10.95726         1.006698      0.266389      0.569075
O      11.28725     13.36810     11.07426         0.873562     -0.252967      0.050695
O      11.45456      5.73711      2.47299         0.169709      0.051489     -0.154194
O      11.40135      5.67107     15.28596         0.399058      0.042225     -0.059978
O      11.37496      5.92298      6.81726        -0.757516     -0.939056      0.046018
O      11.28498      5.73992     10.91062         0.203687      0.591117      0.376998
O      11.42696      9.48404      2.47163         0.112031     -0.255120      0.023431
O      11.44057      9.55349     15.15977        -0.590867     -0.063623     -0.031580
O      11.34969      9.29801      6.73705        -0.630636      0.642348      0.514602
O      11.23848      9.33016     10.99911         0.981438     -0.154178      0.016987
O       1.83191      3.90470      2.64292         0.457596     -0.713010     -0.380569
O       1.88749      3.79837     15.22014         0.030922     -0.454070      0.398397
O       1.86571      0.05704      2.64260         0.105771      0.447222     -0.314969
O       1.91750     15.19061     15.28655        -0.392892     -0.411219     -0.305111
O      13.45643      3.87805      2.37300        -0.211059      0.285099      0.326031
O      13.24740      3.77431     15.16260         0.327671      0.417080      0.574924
O      13.20210      0.03456      2.54617         0.646209     -1.047887      0.192662
O      13.41766     15.15756     15.17474        -0.499576     -0.148030     -0.008734
O       1.84883      3.80274      6.92972         0.359392      0.212311     -0.260586
O       1.63675      0.00788      6.75701         0.429275     -0.145005      0.214106
O      13.11473      3.80259      6.83935         0.399901      0.753618     -0.176787
O      13.26028     15.19324      6.86756        -0.244313      0.110072     -0.908644
O       1.83260      3.78300     10.93096         0.322001     -0.103174      0.012266
O       1.73775     15.16955     11.00918         0.088073     -0.200224      0.391664
O      13.14810      3.79806     11.10117         0.141598     -0.042506     -0.334590
O      13.21733      0.04941     11.07178         0.289183     -0.490991      0.097537
O       1.93537      7.63255      2.62487         0.409213      0.393985     -0.139048
O       1.95066      7.57414     15.28931        -0.558878     -0.318363     -0.136720
O      13.38182      7.64817      2.48811        -0.492681     -0.271200      0.120323
O      13.25425      7.57635     15.19082         0.112675      0.442260     -0.000469
O       1.85287      7.64240      6.72248        -0.253932     -1.379388      0.728873
O      13.26559      7.57363      6.81048         1.175780      0.739875      0.264738
O       1.61972      7.59463     11.06285         0.952227     -0.347592     -0.160080
O      13.37069      7.60695     11.08050        -0.550389     -0.596661     -0.038751
O       1.90853     11.32347      2.53187        -0.334388      1.242135      0.483848
O       1.83101     11.41677     15.21018         0.072385     -0.438807      0.025097
O      13.30155     11.37780      2.49389        -0.052938      0.413227     -0.085595
O      13.35074     11.39430     15.19558         0.208755     -0.342702      0.105701
O       2.00938     11.32761      6.92525        -0.643774      1.306514     -0.228305
O      13.15437     11.38710      6.87969        -0.447768      0.290669      0.344286
O       1.89389     11.26615     11.04192        -0.248308      1.359945     -0.000667
O      13.09621     11.35730     10.96046        -0.102722     -0.262398     -0.172176
O       5.65747      3.74376      2.63890         0.232460      1.525190      0.212615
O       5.60646      3.75799     15.29580         0.364083      0.760472      0.251805
O       5.61939      0.02111      2.64127         0.372238      0.056859      0.081446
O       5.68870      0.02454     15.26492        -0.220585     -1.414297      0.003183
O       5.69756      3.75517      6.68267        -0.142989      1.091292      0.239798
O       5.75764     15.17509      6.90615        -0.211955     -0.410989     -0.071927
O       5.64597      3.70775     11.03773        -0.091316      1.615134     -0.425067
O       5.62916     15.11864     11.08433         0.153649      1.083653      0.245877
O       5.71845      7.62904      2.51307         0.374615     -0.566814      0.021624
O       5.60917      7.55510     15.25651         0.109607      0.461072      0.077118
O       5.84146      7.64797      6.75641        -1.014808     -0.580625     -0.405295
O       5.65310      7.57000     11.09158         0.052360     -0.317639     -0.611288
O       5.71370     11.50991      2.56153         0.010362     -1.948551      0.059662
O       5.64816     11.41420     15.28523         0.131442     -0.359833      0.012123
O       5.57484     11.44495      6.79666        -0.063157     -1.046285     -0.092016
O       5.60556     11.35895     11.01605        -0.343920     -0.588720      0.287622
O       9.54225      3.86560      2.46741         0.033007     -0.472701      0.213052
O       9.48661      3.70591     15.28463        -0.241896      1.482261      0.247649
O       9.44221      0.05807      2.39925         0.472675     -0.683490      0.679848
O       9.55058     15.18129     15.26192        -0.445921     -0.212073     -0.023985
O       9.51356      3.72372      6.84019         0.357789      0.998962     -0.299914
O       9.46586      0.05410      6.91390        -0.429492     -0.721352     -0.658310
O       9.41461      3.85952     11.05092         0.232109     -1.292749     -0.042271
O       9.38434      0.03987     11.09160         0.049164     -0.639618      0.148244
O       9.54576      7.53337      2.34777        -0.180065      0.906069      0.646758
O       9.63526      7.60445     15.34936        -0.495296      0.513166     -0.690176
O       9.35733      7.60914      6.80029        -0.097701     -0.523794     -0.191804
O       9.21070      7.61575     10.84820         0.450386     -0.839985      0.283805
O       9.57492     11.32174      2.52070        -0.272352      1.002269     -0.076408
O       9.50278     11.37870     15.14727         0.125109     -0.230880      0.588781
O       9.52866     11.42320      6.80407         0.072837      0.156400      0.170605
O       9.48284     11.38021     10.96577        -0.304641     -0.077315      0.016249
