  # total energy = -7863.17850873 
CRSYTAL
PRIMVEC
    15.010000000000000    0.0000000000000000    0.0000000000000000
     0.0000000000000000   15.010000000000000    0.0000000000000000
     0.0000000000000000    0.0000000000000000    16.400000000000000
PRESSURE
16.0704 16.3053 6.60947 -0.160645 -0.139678 -0.09052
PRIMCOORD
320 1
Pb       3.72048      3.63169      4.14466        -0.156293      0.212050      0.157507
Pb       3.61897      3.73335     16.38239         0.404011      0.013769     -0.831327
Pb       3.77848     14.94669      4.16146        -0.234976      0.112915     -0.365618
Pb       3.86073     14.97644      0.09580        -0.476514     -0.074526     -0.383434
Pb      14.94307      3.83735      4.17527         0.254314     -0.963880      0.388588
Pb      14.88852      3.62898      0.12785         0.429097      0.526888     -0.623472
Pb      14.88011      0.03238      4.28898         0.549114     -0.181352     -0.346872
Pb       0.05935     14.98239      0.15926        -0.469642     -0.312437     -0.313255
Pb       3.48148      3.73544      8.26701         1.163022     -0.131196     -0.608704
Pb       3.71188      0.17818      8.23572        -0.259871     -0.638408     -0.267830
Pb      14.80217      3.75996      8.30371         0.569400     -0.220075     -0.482163
Pb      14.85158      0.00310      8.21091         0.469173      0.392603     -0.230176
Pb       3.74088      3.65526     12.39104        -1.070238      0.012711      0.882359
Pb       3.62296     14.97937     12.33364         0.526904     -0.248827      0.252319
Pb      14.89757      3.79530     12.37706         0.317904      0.249651      0.041959
Pb      14.97967     14.98230     12.32935         0.226063      0.236827      0.091332
Pb       3.88034      7.53080      4.18201         0.124124     -0.275880      0.463586
Pb       3.77114      7.57224      0.06289         0.049339     -0.264378     -0.693604
Pb       0.17735      7.53422      4.19465        -0.671048     -0.016736     -0.366699
Pb       0.02923      7.42233      0.07295         0.048471      0.558325      0.009598
Pb       3.71533      7.53545      8.32467         0.547528     -0.381384     -0.766184
Pb       0.06947      7.55058      8.33574        -0.984775     -0.062711     -0.922495
Pb       3.62784      7.38988     12.33908        -0.030323      0.079616     -0.026553
Pb      14.87903      7.48270     12.29316         0.721881     -0.173607      0.296472
Pb       3.89259     11.04581      4.22461        -0.298776      0.740607      0.280172
Pb       3.76975     11.19768      0.14748         0.063094      0.053573     -0.429678
Pb       0.14967     11.11782      4.16937        -0.505298      0.481199     -0.011480
Pb       0.10388     11.28947      0.16440        -0.818761     -0.778272     -0.195613
Pb       3.73131     11.28696      8.26625         0.267160      0.382504     -0.698250
Pb       0.10095     11.27945      8.19539        -0.659667     -0.182057     -0.705324
Pb       3.72416     11.17716     12.29958         0.346435      0.636001     -0.598829
Pb       0.01204     11.26814     12.29409         0.199762     -0.644847      0.642946
Pb       7.40568      3.89837      4.03330         0.339003     -0.789167      0.374486
Pb       7.44283      3.69050      0.08345         0.581323      0.150938     -0.790438
Pb       7.52793     14.89473      4.10660        -0.403587      0.269600      0.111209
Pb       7.50881     14.87117      0.04253        -0.089845      0.349670     -0.210432
Pb       7.40027      3.76698      8.29069        -0.279822     -0.473183     -0.395239
Pb       7.40775      0.13245      8.26753         0.298675     -0.224559     -0.579353
Pb       7.31092      3.80932     12.40447         0.374946     -1.093700      0.000893
Pb       7.42678     15.00259     12.23677         0.050313     -0.039687      0.365592
Pb       7.65763      7.44069      4.11624        -0.902172     -0.077938      0.263651
Pb       7.51662      7.40020     16.35072        -0.000241      0.568386     -0.124988
Pb       7.60300      7.37387      8.28844        -0.767127      1.027524     -0.044828
Pb       7.44873      7.60863     12.26233         0.155640      0.196481      0.257281
Pb       7.62939     11.06068      4.18429        -0.423758      1.210135      0.032738
Pb       7.45865     11.26583      0.00064         0.529014     -0.206016     -0.022525
Pb       7.63340     11.29979      8.18010        -0.402068     -0.146297      0.209758
Pb       7.48858     11.36419     12.17683        -0.118564     -0.454332      0.088294
Pb      11.19411      3.80735      4.17879        -0.180853     -0.052498     -0.188746
Pb      11.25768      3.77143      0.10143        -0.123386     -0.060300     -0.560489
Pb      11.25642     14.90121      4.06833        -0.004216      0.064313      1.452952
Pb      11.32060     14.97234      0.05519         0.184425     -0.270275     -0.412871
Pb      11.19341      3.69073      8.39145         0.345651     -0.081346     -0.584886
Pb      11.18695      0.01905      8.25526        -0.258867     -0.072790     -0.609355
Pb      11.09615      3.74661     12.33261         0.973073     -0.489419      0.588858
Pb      11.18017     14.93013     12.44339        -0.067691     -0.140468     -0.319270
Pb      11.40006      7.49762      4.16460        -0.098048     -0.069441      0.252453
Pb      11.23386      7.40558      0.06208        -0.017032      0.586252     -0.479294
Pb      11.26863      7.44727      8.28556         0.469674      0.480866     -0.649038
Pb      11.06730      7.44536     12.32377         0.876635      0.815131     -0.041284
Pb      11.27848     11.12003      4.10765         0.571746      0.771040      0.280570
Pb      11.23480     11.22193      0.03384         0.495216      0.229504     -0.145522
Pb      11.33794     11.39752      8.28383         0.152104     -0.420600     -0.658417
Pb      11.13752     11.23597     12.32462         0.260956      0.331616     -0.173482
Ti       1.89665      1.83019      1.98190         0.059394     -0.333815      1.380643
Ti       1.85892      1.82706     14.41728         0.443074      0.026975     -0.496101
Ti       1.94246     13.08218      2.02758        -0.642655      0.754810      1.135974
Ti       1.90942     13.06831     14.28094         0.135465      0.888861      0.398190
Ti      13.12480      1.82274      2.19201         0.455027     -0.211692     -0.140244
Ti      13.12815      1.80477     14.37050        -0.265116      0.390792     -0.026012
Ti      13.20473     13.02385      2.16380        -0.661035      0.208527     -0.217095
Ti      13.22736     13.05037     14.32145        -0.779373      0.013115      0.242229
Ti       1.80847      1.82585      6.19691        -0.076131      2.086410     -0.663376
Ti       1.91147     13.17748      6.11194        -0.206816     -0.957568      0.457986
Ti      13.00900      1.95854      6.26568         0.704972     -0.851297     -0.708198
Ti      13.12360     13.16948      6.25316        -0.013160     -1.011223     -1.286043
Ti       1.72889      1.96981     10.40779         1.380376     -0.651094     -0.801125
Ti       1.79151     13.17468     10.20322         0.983754     -0.202290      0.074610
Ti      13.00844      1.78241     10.38017         0.266398      0.758250     -0.653066
Ti      13.13647     13.11239     10.32530        -1.073777      0.365049     -0.410756
Ti       1.97701      5.60450      2.05304        -1.238470     -0.222469     -0.538623
Ti       1.86770      5.62882     14.40318        -0.680218     -0.952938     -0.086763
Ti      13.15200      5.60910      2.19509         0.175290      0.115119     -0.362010
Ti      13.16683      5.66409     14.47335        -1.059149     -0.550983     -0.891143
Ti       1.89551      5.59225      6.14063        -0.301118      0.253029     -0.031627
Ti      13.14401      5.67055      6.24005         0.318693      0.204026     -0.363787
Ti       1.80197      5.64081     10.16712        -0.589308     -0.409354      1.422973
Ti      12.99634      5.64757     10.31503         1.626951     -0.698532     -0.325317
Ti       1.95266      9.31155      2.09752        -1.233900     -0.018194     -0.168635
Ti       1.87085      9.36985     14.41064        -0.714151     -0.527302     -0.443480
Ti      13.06138      9.31492      1.99883         0.875384      0.517178     -0.194983
Ti      13.16759      9.36538     14.23941        -0.320103     -0.310900      1.356061
Ti       1.89368      9.32486      6.24727        -0.316499      0.952511     -0.236026
Ti      13.12409      9.37541      6.22490         0.345527      0.495506      0.047202
Ti       1.96630      9.39347     10.25934        -1.088338      0.062196      0.155905
Ti      13.17850      9.40259     10.29017        -0.462392     -0.065034     -1.402219
Ti       5.63643      1.92108      1.97592        -0.624418     -1.915533      1.232342
Ti       5.64272      1.80093     14.38648        -0.726702      0.286365     -0.135548
Ti       5.63502     13.05740      2.08598         0.700625      0.373743      1.000377
Ti       5.57182     13.07056     14.37036         0.866153      0.383589     -0.331709
Ti       5.56633      1.84598      6.03524         0.112045      0.640137     -0.541531
Ti       5.64172     13.12590      6.16214        -0.566338     -0.024353     -0.161297
Ti       5.45781      1.86556     10.35120         0.361920     -0.439701      0.107666
Ti       5.57206     13.15637     10.13796        -0.171353     -0.691195      0.521713
Ti       5.56140      5.59994      2.01316         0.930834      1.040346      0.113205
Ti       5.60623      5.66193     14.32130        -0.462441     -0.458389      0.949679
Ti       5.65004      5.61637      6.21838        -0.769099     -0.402048     -0.830866
Ti       5.57574      5.54586     10.30466        -0.530806      0.413002     -0.861694
Ti       5.67945      9.33266      2.05072        -0.187720      0.052807     -0.412300
Ti       5.62072      9.42943     14.27625        -0.429433     -1.259410      0.423321
Ti       5.71873      9.36602      6.38304        -0.429746      0.087297     -0.315726
Ti       5.72963      9.32886     10.26567         0.491477      1.237981     -0.580182
Ti       9.43010      1.77544      1.99192        -0.863460      1.098619      0.092037
Ti       9.37200      1.83766     14.36140        -0.030370      0.218795      0.139720
Ti       9.41209     13.12120      2.04841        -0.012862     -0.532024      0.610140
Ti       9.36797     13.12776     14.30618         0.120944      0.666224     -0.258804
Ti       9.27820      2.04286      6.14612         0.492280     -2.529266     -0.605445
Ti       9.36447     13.17637      6.16555         0.787575      0.276267      0.298505
Ti       9.25896      1.90061     10.28037        -0.724225     -1.144386      0.189387
Ti       9.32762     13.15270     10.19422         0.569037      0.183880      0.901236
Ti       9.36451      5.66391      2.04871         0.567281     -0.817013     -0.647461
Ti       9.40110      5.62278     14.19302        -0.530524     -0.237942      2.161646
Ti       9.35701      5.67004      6.31036         1.193936     -0.094969     -1.482914
Ti       9.26371      5.58401     10.33962         0.417393      1.211799     -0.819367
Ti       9.34804      9.38504      2.12935         1.104577      0.238596     -1.528921
Ti       9.37241      9.46507     14.36048         0.072691     -0.638406     -0.381736
Ti       9.46038      9.38478      6.17502         0.811316      0.302006      0.362412
Ti       9.51201      9.40321     10.16722        -1.931977     -0.093745      0.729072
O       1.98456      1.89065      0.16668        -0.514129     -0.408958     -0.332218
O       1.78901      1.83978     12.56321         0.198728     -0.201415     -0.716677
O       1.83333     13.12319      0.19732        -0.050414     -0.212699     -0.415573
O       2.00527     13.03947     12.41472        -0.176896     -0.050196      1.000348
O      13.14157      1.83358      0.32848        -0.251596      0.076548     -0.460280
O      13.01996      1.71401     12.45453         0.098234      0.389036      0.419338
O      13.13881     12.95783      0.26839         0.448287      0.928484     -0.642213
O      13.10813     13.22978     12.43956         0.007204     -0.547397      0.520895
O       1.81623      1.89217      4.33496         0.367708      0.177203     -0.150076
O       1.80297     13.14916      4.29197         0.165698      0.024271     -0.410187
O      13.00371      1.89178      4.33496         0.453101      0.103059      0.022261
O      13.12919     13.07211      4.24831         0.227336      0.138421      0.688895
O       1.85596      2.05624      8.52400        -0.039636     -0.813892      0.177135
O       1.75638     13.10036      8.37282         0.028385      0.105316      0.650836
O      13.13422      1.92839      8.42290         0.041590     -0.211405      0.745698
O      13.12918     13.23724      8.39306         0.186788     -0.212260      0.495370
O       1.90137      5.55122      0.11668        -0.184529      0.086137      1.636148
O       1.79384      5.73919     12.55612        -0.033398     -0.058644     -0.731934
O      13.08995      5.55410      0.21365         0.090133      0.197073      0.774092
O      13.18112      5.57071     12.54994        -0.479383      0.425291     -0.545116
O       1.94407      5.75929      4.24608        -0.499384     -0.683979      0.580008
O      13.20798      5.74410      4.29424        -0.162222     -0.852932      0.396986
O       1.88949      5.62639      8.35774        -0.060331      0.117835      0.282681
O      13.07509      5.53504      8.43670        -0.168386      0.168874      0.357061
O       1.84598      9.28719      0.26055         0.070128      0.370685     -0.424198
O       1.92788      9.30734     12.50887         0.197415      0.091006      0.425485
O      13.07529      9.25265      0.14875        -0.124544      0.192723      0.724668
O      13.14085      9.37101     12.39327        -0.506098      0.188276      0.834143
O       1.96754      9.26582      4.32203        -0.402441     -0.011638     -0.054685
O      12.97545      9.41291      4.31152         0.764090     -0.259294      0.706053
O       1.75658      9.37156      8.36653         0.421732      0.056151      1.161159
O      13.15424      9.44415      8.35973        -0.083863     -0.436064      1.711528
O       5.47478      1.87316      0.16537         0.551922      0.149439     -0.228978
O       5.59695      1.77248     12.53117         0.228958      0.321987      0.136825
O       5.68659     13.01382      0.22590        -0.132212     -0.002910      0.307796
O       5.63831     13.00769     12.54848        -0.225523      0.210354     -0.020836
O       5.53027      1.76250      4.14506         0.080965      0.559024      1.148332
O       5.47484     13.05192      4.27006         0.684634      0.391564      0.206331
O       5.46347      1.87513      8.53768         0.363295      0.043898     -0.541672
O       5.69683     13.09319      8.34133        -0.527811      0.302533      0.260397
O       5.51250      5.69050      0.16306         0.475310     -0.390902      0.334187
O       5.67890      5.65786     12.48920        -0.408866     -0.111813     -0.537673
O       5.76522      5.60133      4.23647        -0.352501      0.513377      0.917365
O       5.67544      5.48573      8.45189        -0.160306      0.310701     -0.079143
O       5.53825      9.31724      0.22806         0.440581      0.418955      0.215434
O       5.70519      9.34416     12.41540        -0.484339      0.145186      0.064311
O       5.53205      9.32364      4.49860         0.597225      0.234183     -1.040366
O       5.76630      9.35896      8.37524        -0.622905      0.176995      0.271300
O       9.40304      1.73521      0.12111         0.022557      0.005106      0.915404
O       9.45099      1.88190     12.46292        -0.234009     -0.278775      0.215454
O       9.34526     13.12575      0.21801         0.263213      0.122288     -0.305778
O       9.31516     13.17179     12.43340         0.235760     -0.503708      0.569294
O       9.39395      1.98516      4.24602        -0.145374     -0.046453      0.937466
O       9.37005     13.16998      4.35311        -0.170705     -0.166153     -0.527903
O       9.21590      1.81831      8.42853        -0.148657      0.480846     -0.057124
O       9.40347     13.18772      8.41146        -0.218850     -0.136758     -0.984225
O       9.48372      5.68831      0.19177        -0.698420     -0.204246      0.165146
O       9.43651      5.56055     12.35098        -0.511738      0.317520      0.802109
O       9.30696      5.65156      4.33825        -0.154520     -0.178028     -0.031441
O       9.22388      5.68646      8.46525         0.718773     -0.742117     -0.463967
O       9.57271      9.48316      0.24176        -0.987620     -0.411363     -0.086994
O       9.29462      9.39763     12.42828         0.522918      0.164744      1.400778
O       9.49637      9.32087      4.20579        -0.958340     -0.014511      1.413394
O       9.40178      9.40748      8.38114         0.096359     -0.447378     -0.644555
O       3.69670      1.41214      2.22191         0.723246      0.738826      0.242534
O       3.79013      2.12487     14.50534        -0.360591     -0.019349      0.131681
O       3.73109     13.52687      2.27784         0.332293     -0.880786     -0.521014
O       3.77777     12.76634     14.67351        -0.841585     -0.061892     -0.367075
O       0.07187      2.23149      2.13999        -1.370094     -0.069408      0.817158
O      14.98982      1.50435     14.61348        -0.508794      0.282582      0.036087
O      14.99728     12.66335      2.20893         0.899642      0.231649      0.480917
O       0.06506     13.49261     14.27903        -0.168206     -0.317001      0.987062
O       3.78902      1.81217      6.47336        -2.298866      0.306062     -0.028666
O       3.72003     13.23925      6.51164        -0.499747     -0.240803     -0.077557
O      15.00521      2.06857      6.43078        -1.019204     -0.395446     -0.054732
O      14.98662     12.98190      6.35587        -0.120405      0.555230      0.124797
O       3.62349      1.50876     10.64173         0.274472      0.702733     -0.514894
O       3.72071     13.30664     10.40532        -0.177282      0.159526     -0.225877
O      14.97057      2.10292     10.57342        -1.689318      0.406335     -0.203026
O      14.95875     12.78481     10.65531         0.872009      0.652093     -1.249660
O       3.78561      6.00944      2.32080         0.092879     -0.142222     -0.248329
O       3.66367      5.30437     14.45748         2.088395      0.074062     -0.025035
O       0.01615      5.16235      2.34085        -0.177183      1.017567     -0.970135
O      14.94276      5.90832     14.57877         0.693635      0.183562      0.182421
O       3.78917      5.72239      6.29339        -0.927595      0.639378      0.358447
O       0.01311      5.61280      6.42339        -0.149918     -0.927846     -0.234179
O       3.70164      5.89348     10.36970        -0.102530      0.088430      0.478307
O      14.96581      5.21237     10.37807        -0.103459      0.796716      0.290270
O       3.79131      9.11229      2.27183        -0.195150     -0.987481      0.422048
O       3.67102      9.67288     14.70331         0.658055     -0.282536     -0.671442
O      14.97917      9.49176      2.30553         0.097601      0.563502      0.185155
O      14.98830      8.93954     14.57970         0.079517     -0.040563     -0.297299
O       3.68725      9.27359      6.47818         1.308311     -0.152255      0.398258
O      14.95611      9.54144      6.39802         0.939480     -0.043803     -0.418975
O       3.80647      9.10781     10.30820        -0.841546     -0.278227      0.342838
O      14.94682      9.67390     10.59833         1.630457     -0.417044     -0.803467
O       7.44578      2.11080      2.10046         0.943247      0.294451      0.228502
O       7.51562      1.50168     14.65325         0.383210      0.428181     -0.223569
O       7.56783     12.67098      2.37712        -1.704728      0.865088     -0.344446
O       7.52477     13.31318     14.57720        -0.382319      0.295938      0.129642
O       7.39732      1.99627      6.36738         0.701022     -0.024870      0.193426
O       7.47653     13.04266      6.48304         0.029663     -0.193165     -0.597624
O       7.35786      2.08596     10.48771         1.050883      0.250323      0.168903
O       7.46776     12.85575     10.41397        -0.153700      0.176468     -0.035403
O       7.50998      5.29514      2.21670        -0.439820      0.125554     -0.413208
O       7.47428      5.89000     14.56664         0.350502     -0.460986     -0.396847
O       7.52803      5.45026      6.41865        -0.729180      0.070351      0.107651
O       7.44907      5.18392     10.43870        -0.582849      0.645113      0.230036
O       7.48421      9.82060      2.25221         0.234928     -0.559914      0.124984
O       7.38061      9.13618     14.63588         1.783602     -0.009552     -0.070658
O       7.58459      9.53750      6.32684        -0.289897     -0.127440      0.083489
O       7.55993      9.59225     10.35561        -0.497757     -0.137678      0.517222
O      11.23440      1.34880      2.29323        -0.047696      0.997701     -0.822362
O      11.25625      2.06281     14.64927         0.374850      0.277851     -0.227323
O      11.28007     13.52742      2.28248        -0.457490     -0.711567     -0.576984
O      11.33838     12.77062     14.40296        -0.519075     -0.033263      0.234101
O      11.18342      1.77162      6.56793        -0.938152      0.402714     -0.322576
O      11.27324     13.24947      6.37538        -0.666804      0.349266      0.291118
O      11.12119      1.56796     10.15110         1.431455      0.133946      1.331910
O      11.22581     13.36564     10.48903         0.597816      0.185939     -0.142741
O      11.22987      5.82845      2.32029         0.082538      0.109313      0.154417
O      11.19058      5.37631     14.55635        -0.301383     -0.133664     -0.247606
O      11.30417      5.78104      6.37139        -1.435202     -0.194855      0.201300
O      11.18085      5.92865     10.34686        -0.146456     -0.453563      0.566172
O      11.20376      9.04772      2.39822         0.158802     -0.076216     -0.891489
O      11.24875      9.76387     14.49929        -0.249240     -0.263189     -0.555639
O      11.28285      9.08892      6.45926        -1.002768      0.400322     -0.290827
O      11.26682      9.02559     10.41326         0.370619      0.169388      0.413520
O       2.29790      3.77015      2.15766        -0.067622     -0.669489      0.544028
O       1.63317      3.65089     14.55413        -0.515077      1.380394      0.245640
O       1.48877     14.95693      2.16106        -0.062829      0.200294      0.279835
O       2.29208      0.00581     14.53295        -0.504334     -1.761617      0.220749
O      12.74235      3.67000      2.40256         0.374022      0.838171     -0.422118
O      13.41056      3.75050     14.53297        -0.462282     -1.173252      0.142012
O      13.56760     14.98490      2.33122        -0.422227     -0.186935     -0.244855
O      12.83701     14.93477     14.62657         0.335338      0.054544     -0.210485
O       1.91281      3.76330      6.45887         0.543107      0.642504     -0.528281
O       1.70164      0.06787      6.39317         0.168781     -1.829225      0.492487
O      12.96188      3.75400      6.40493         0.034219      1.373797      0.026436
O      13.17392      0.08886      6.31817         0.641828     -1.292797      0.382205
O       2.08807      3.79031     10.61588         0.281535      0.132652     -0.283771
O       1.59157     14.95821     10.41397        -0.310361      0.731289      0.171189
O      12.72226      3.73263     10.51542         0.307688     -0.679619      0.023393
O      13.57807     14.99777     10.38803        -1.144952      0.235536     -0.148353
O       1.55531      7.42385      2.18217         0.090107      0.338590      0.282503
O       2.14141      7.41664     14.71944         0.014604      1.910782     -0.533896
O      13.30557      7.47236      2.34103         0.211564     -0.953753     -0.235894
O      12.61322      7.49719     14.48341         0.877319      0.258365     -0.063507
O       1.64306      7.50379      6.48507         0.627509     -0.251205     -0.322853
O      13.27908      7.48385      6.54351        -0.058164      0.520510     -0.265055
O       1.50182      7.53640     10.40075         0.546369     -0.625528      0.196087
O      13.39188      7.48446     10.46399        -0.194707     -0.338638     -0.233079
O       2.21517     11.18881      2.22469        -0.524195      0.288590      0.347331
O       1.44593     11.25957     14.56859         0.927099     -0.630304     -0.162585
O      12.71561     11.17802      2.15932         0.228776      0.067293      0.496250
O      13.65756     11.15300     14.60640        -1.168717      1.162268     -0.605907
O       1.89926     11.28708      6.38642         0.207655     -0.706875      0.006686
O      12.90916     11.26615      6.48288         0.257075     -0.006142     -0.353407
O       2.16587     11.20531     10.45324        -0.423145      0.332038     -0.010783
O      12.84018     11.26988     10.39206        -0.182875     -0.108533      0.372629
O       5.30578      3.75884      2.27768        -0.047679     -0.006751     -0.218108
O       5.90005      3.71725     14.53492         0.053351      0.551638     -0.048049
O       5.92033     14.96590      2.17237         0.105763     -0.571009      0.062322
O       5.37507     14.95179     14.59367         0.099205     -0.631492      0.152494
O       5.38485      3.75025      6.30189         0.795601     -0.174191     -0.022173
O       5.41824     14.99400      6.34612         1.576737      0.531912      0.188379
O       5.22674      3.68594     10.65053         0.566867      1.076062     -0.483649
O       5.85640     14.99774     10.53036        -0.335641     -0.647818     -0.400233
O       6.05898      7.52295      2.20672        -0.516568     -0.740428      0.519988
O       5.28349      7.51523     14.51237        -0.149379     -0.254449     -0.020894
O       5.75535      7.49584      6.46610         0.042816     -0.359868      0.063740
O       5.85127      7.43263     10.39403         0.325688     -0.059877      0.265995
O       5.17434     11.18867      2.28602         0.845910      0.797367     -0.147100
O       5.90492     11.17972     14.63673        -0.428581      1.051364     -0.251234
O       5.43350     11.29928      6.34653         0.143577     -1.336954      0.428930
O       5.40223     11.25597     10.39540        -0.181396     -0.763356      0.382414
O       9.61942      3.70834      1.97921         0.161240     -0.457238      1.032092
O       9.09559      3.73169     14.47185        -0.059259      0.455883      0.174962
O       8.94267     14.94939      2.33682         0.588046      0.618970     -0.455946
O       9.75669     14.96870     14.46969        -0.278947     -0.011253      0.283273
O       9.50073      3.81690      6.47623         0.082561     -0.865312      0.106077
O       9.15298     14.99231      6.37186         0.281591      1.431795      0.047054
O       9.50676      3.75503     10.50941         0.879483     -0.890779     -0.339685
O       9.02601     14.95724     10.44933        -0.040935      1.520190      0.000902
O       8.93284      7.53067      2.09792         0.452794     -0.267210      0.616417
O       9.49509      7.55336     14.49273         0.500572     -0.383796     -0.040295
O       9.27883      7.48820      6.46985        -0.482530      0.641791     -0.086422
O       9.07485      7.48231     10.52010        -0.003119     -0.005679     -0.245713
O       9.67073     11.28990      2.36164         0.277759     -0.670614     -0.305727
O       9.10199     11.32914     14.51653        -0.064773     -1.791408      0.193756
O       9.60243     11.25047      6.42249        -0.434642     -0.572554     -0.161228
O       9.56940     11.26796     10.38486         0.335662     -0.552658      0.382218
