  # total energy = -7880.95426272 
CRSYTAL
PRIMVEC
    15.2000000000000000    0.0000000000000000    0.0000000000000000
     0.0000000000000000   15.2000000000000000    0.0000000000000000
     0.0000000000000000    0.0000000000000000    17.000000000000000
PRESSURE
7.68371 7.30785 0.921139 0.091965 0.022635 -0.01222
PRIMCOORD
320 1
Pb       3.79435      3.81440      4.22667         0.270647     -0.038455     -0.315083
Pb       3.65468      3.77226      0.07123         0.350117     -0.161315     -0.131884
Pb       3.79000     15.13106      4.31781        -0.005145      0.116790     -0.496340
Pb       3.82868     15.18972      0.03513        -0.125198      0.149591     -0.316773
Pb      15.09803      3.85561      4.24636         0.483688     -0.402503     -0.083604
Pb      15.12365      3.70228     16.98924         0.621576      0.712701     -0.164531
Pb       0.00388     15.17315      4.14643        -0.207435      0.182104      0.102569
Pb       0.01811      0.02910     16.92171        -0.206794     -0.219773      0.143890
Pb       3.69986      3.66613      8.54290         0.016096      0.448834     -0.299173
Pb       3.72503      0.03960      8.37549         0.723114      0.040724      0.374665
Pb      15.05711      3.82780      8.39634         0.336382     -0.239622     -0.053912
Pb       0.12032     15.19257      8.63197        -0.603782      0.153187     -0.962034
Pb       3.76578      3.82810     12.83223        -0.003476     -0.234906     -0.286678
Pb       3.80648     15.08272     12.62504        -0.028402      0.591698      0.563179
Pb       0.04824      3.55756     12.80316         0.158352      0.507388     -0.163001
Pb      15.17361     15.10505     12.63231         0.448638      0.545206      0.514194
Pb       3.67775      7.62394      4.21905         0.859333     -0.484343      0.008215
Pb       3.87609      7.54086      0.10928        -0.511964      0.311278     -0.549110
Pb       0.00950      7.51907      4.17511        -0.297247      0.189700      0.221202
Pb       0.18963      7.65980      0.04383        -0.761852     -0.410792      0.467759
Pb       3.70030      7.54858      8.52385        -0.211411     -0.071958     -0.105407
Pb      15.18736      7.60224      8.52865        -0.065572     -0.186478     -0.339006
Pb       3.84561      7.67693     12.76590        -0.527886     -0.098355     -0.091340
Pb      15.15792      7.62916     12.71546         0.107074     -0.593001      0.477170
Pb       3.77873     11.41491      4.22912         0.201309     -0.059994     -0.137013
Pb       3.73276     11.37762     16.93926         0.452292     -0.420165      0.195331
Pb      15.14360     11.36144      4.23720         0.024624      0.212336     -0.435516
Pb       0.03275     11.42292      0.01301        -0.402742     -0.253443      0.179327
Pb       3.80949     11.31708      8.39161        -0.215522      0.225360      0.554450
Pb      15.10253     11.33617      8.49748        -0.104879      0.198710     -0.288830
Pb       3.83330     11.35511     12.72061         0.145945     -0.013430     -0.254565
Pb       0.01539     11.46812     12.54873        -0.172792     -0.596663      1.150940
Pb       7.61941      3.77291      4.18337        -0.128153      0.175813     -0.359028
Pb       7.57370      3.77350     16.93153         0.360039      0.085801      0.151229
Pb       7.60700      0.11233      4.24786         0.010612     -0.269773      0.126151
Pb       7.53122      0.02675      0.00818         0.220509     -0.176975     -0.316153
Pb       7.55909      3.89131      8.42316        -0.045249     -0.019321      0.185815
Pb       7.53990     15.16672      8.40702        -0.152218      0.049487     -0.175243
Pb       7.52350      3.69521     12.67040        -0.043959      0.394245      0.575911
Pb       7.68293      0.09664     12.65982        -0.903559     -0.451153      0.720520
Pb       7.50155      7.66989      4.42660        -0.073266     -0.275385     -0.791286
Pb       7.49884      7.48195     16.92334         0.807962      0.106637      0.421374
Pb       7.63780      7.54251      8.55808        -0.137415      0.027100     -0.365070
Pb       7.74380      7.51687     12.83209        -0.378846      0.190284     -0.259477
Pb       7.66707     11.42798      4.13996        -0.409811     -0.374616      0.330811
Pb       7.67575     11.32118     16.97639        -0.374123      0.294941      0.110772
Pb       7.54669     11.31088      8.34464         0.101421      0.181362      0.300693
Pb       7.57416     11.25368     12.75249        -0.486386      0.204394      0.274054
Pb      11.46899      3.62614      4.26390        -0.635298      0.530097     -0.455149
Pb      11.45301      3.87391      0.00892        -0.477930     -0.205397     -0.323302
Pb      11.31996      0.02215      4.25210         0.586817     -0.104666     -0.304852
Pb      11.32834     15.15175     16.90684         0.308681      0.096954      0.450131
Pb      11.29538      3.75419      8.48245         0.326676      0.313017     -0.113513
Pb      11.32712     15.14338      8.56640         0.015684     -0.084256     -0.497857
Pb      11.45294      3.80876     12.75879        -0.298139      0.218392     -0.016176
Pb      11.34958     15.15176     12.85509         0.168499      0.069705     -0.083806
Pb      11.38837      7.63303      4.29484        -0.073785     -0.023266     -0.800747
Pb      11.31809      7.53100      0.03550         0.097174     -0.000696      0.293977
Pb      11.36633      7.61432      8.33316         0.108536      0.056621      0.587949
Pb      11.30490      7.47664     12.63173         0.675852      0.177868      0.431040
Pb      11.43459     11.50538      4.22198         0.173730     -0.278924     -0.425681
Pb      11.30047     11.32031      0.11430         0.360916      0.141390     -0.059009
Pb      11.33711     11.37346      8.53808         0.222320     -0.082346     -0.384846
Pb      11.48401     11.38520     12.99417        -0.223243     -0.226780     -0.488224
Ti       1.89369      1.89856      2.24369        -0.312651     -0.171441      0.451562
Ti       1.91133      1.86954     15.01616         0.273660      0.248235     -0.588898
Ti       2.01175     13.31776      2.16356        -1.389100     -0.364909     -0.158046
Ti       1.91626     13.24549     14.98237         0.154091      0.849453     -0.032592
Ti      13.28867      1.96209      2.17935        -0.015388     -1.226791      0.277955
Ti      13.28798      1.89242     14.93627        -0.393894     -0.341907     -0.318790
Ti      13.39966     13.35929      2.25293        -0.615523     -0.160201     -0.909891
Ti      13.32061     13.22358     15.08457         0.103901      0.085287     -0.640315
Ti       1.83376      1.88989      6.39715        -0.522425      0.436339      0.188921
Ti       1.86719     13.29367      6.49410        -1.090102     -0.407606     -1.032963
Ti      13.22082      1.84058      6.47837         1.034332     -0.192890     -0.355556
Ti      13.22885     13.31916      6.49323         0.593784      0.247856     -1.277816
Ti       1.93074      1.92587     10.68365        -0.506056     -0.844730      0.316489
Ti       1.88239     13.21506     10.64395         1.426060      0.929682      0.482515
Ti      13.22036      1.90757     10.73409         0.943805     -0.280355      0.420001
Ti      13.17157     13.29868     10.75691         0.184320     -0.884909      0.102873
Ti       1.91733      5.63843      2.28299        -0.535253     -0.228572     -1.606931
Ti       1.91521      5.72855     15.05105        -0.153254     -0.626793     -0.876472
Ti      13.28044      5.72161      2.23243        -0.584873      0.695680     -0.457204
Ti      13.36904      5.74061     15.00184        -0.366893     -0.481660     -0.575636
Ti       1.86416      5.65807      6.46806        -0.694031      0.560731      0.066168
Ti      13.26073      5.69765      6.40403         0.773630     -0.467844     -0.436821
Ti       1.86925      5.67333     10.73072         0.475834      0.377049      0.065206
Ti      13.33321      5.63630     10.72365        -0.452709      1.191358      0.324443
Ti       1.86479      9.50766      2.31520         0.071183      0.080448     -1.556478
Ti       1.81822      9.47683     15.03739         1.205275      0.261582     -0.903113
Ti      13.24484      9.47013      2.26600        -0.293536      0.749245     -1.089621
Ti      13.24240      9.43349     15.05044         0.610877      0.476067      1.036243
Ti       1.82013      9.52907      6.43919        -0.085084     -1.165397      0.673961
Ti      13.30339      9.50559      6.44710        -0.217128      0.256948     -0.935186
Ti       1.83400      9.42411     10.68554         0.892356     -0.549076     -0.591953
Ti      13.21349      9.47224     10.76030         0.105125     -0.034931     -0.793930
Ti       5.69454      1.86265      2.17386        -0.584512      1.159741     -0.151735
Ti       5.64500      1.88863     14.97767         0.037765      0.071412     -0.026185
Ti       5.75248     13.29886      2.25343        -0.164960     -0.615931      0.633103
Ti       5.68354     13.30572     15.01606         0.949539      0.326357     -0.900987
Ti       5.67228      1.97412      6.37916        -0.147384     -0.994998      0.032893
Ti       5.65861     13.26458      6.42913         0.192324      1.139569     -0.012699
Ti       5.68140      1.93664     10.64756        -1.122706     -0.728990     -0.210434
Ti       5.68727     13.31020     10.65774        -0.833168     -0.337913      0.420709
Ti       5.72405      5.67936      2.19956        -0.319899     -0.405621      1.530924
Ti       5.65730      5.63797     15.03183         0.749942     -0.695727     -0.336464
Ti       5.61653      5.69186      6.55518         0.000124      1.080398     -1.506104
Ti       5.64481      5.72100     10.84261        -0.337074     -0.798366     -1.266118
Ti       5.67141      9.45303      2.25047         0.862865      0.519302     -0.445897
Ti       5.72524      9.46600     15.03506        -0.898431      0.460855     -0.533912
Ti       5.60756      9.45979      6.47361         0.544796     -0.228391     -0.421109
Ti       5.72419      9.44494     10.65555        -0.517256      0.549399     -0.568331
Ti       9.48436      1.90649      2.16843         0.712323      0.570652      0.441711
Ti       9.47565      1.86215     14.98382         0.002704      0.797837     -0.012757
Ti       9.49695     13.33242      2.29588         0.888185     -0.290483     -1.887784
Ti       9.48250     13.25636     15.04425        -0.591617      0.005437     -0.261910
Ti       9.48678      1.89267      6.50373        -0.429698     -0.432209     -1.424331
Ti       9.46823     13.28132      6.45163         0.367262      0.175174     -0.755073
Ti       9.48879      1.91299     10.69092        -0.520880      0.485345     -0.372680
Ti       9.42763     13.25004     10.88968        -0.110545      0.160224     -0.902729
Ti       9.46234      5.72461      2.27652         0.530088     -0.231234     -1.044143
Ti       9.52954      5.65567     14.96959        -0.520116     -0.693029     -0.518241
Ti       9.52374      5.71236      6.38996        -0.814349     -0.280294      0.819992
Ti       9.43452      5.67482     10.75648         0.760311      0.406565     -0.780964
Ti       9.41903      9.44460      2.24497         0.557508     -0.009204     -0.478786
Ti       9.48561      9.41662     14.99016        -0.217176      0.068193     -1.007287
Ti       9.44855      9.48543      6.37507         0.772270      0.413667     -0.044070
Ti       9.47279      9.57569     10.70955         0.613074     -1.459064      0.091598
O       1.73509      1.98282      0.47815         0.203136     -0.316805     -0.819954
O       1.99573      1.97554     13.21793        -0.584404      0.002732      0.230248
O       2.02076     13.30662      0.35973        -0.322068     -0.177963      0.268082
O       2.02126     13.31910     13.21307        -0.302400     -0.473772     -0.287703
O      13.33452      1.92036      0.38560        -0.189078      0.048124      0.310390
O      13.19307      1.83112     13.08861         0.234645      0.430044      0.955998
O      13.43984     13.36720      0.43037        -0.474435     -0.181208      0.277586
O      13.19710     13.09107     13.23887         0.396725      0.493634      0.458577
O       1.76480      1.89142      4.62964         0.481388     -0.298623      0.000283
O       1.94762     13.28083      4.64031        -0.336162      0.136871      1.387907
O      13.17556      1.86833      4.66310         0.237331      0.202155      0.727566
O      13.20367     13.42842      4.63139         0.463604     -0.827875      0.750872
O       1.88522      1.81624      8.86505         0.097157      0.273158      0.357160
O       1.98696     13.25460      8.88523        -0.372688      0.309475     -0.490259
O      13.21871      1.89324      8.96606         0.283344     -0.106345     -0.250510
O      13.07329     13.26999      8.99025         0.413347      0.196671     -0.062893
O       1.78572      5.61655      0.41799         0.804967      0.391773      1.208919
O       1.88297      5.73317     13.22598         0.226101     -0.092452      0.803109
O      13.30618      5.80863      0.42850        -0.256714     -0.335415      0.366004
O      13.18962      5.73120     13.20137         0.220977     -0.354694      0.126164
O       1.80115      5.70229      4.67158         0.296137     -0.040322     -0.315908
O      13.29946      5.58773      4.60606        -0.082863      0.394686      0.208000
O       1.95506      5.74117      8.94012        -0.181029     -0.232769     -0.273051
O      13.34804      5.71931      8.97083        -0.225067     -0.280111     -0.815611
O       1.94993      9.45559      0.46629        -0.091413      0.129462      0.763709
O       1.80092      9.37053     13.24624         0.173637      0.229253     -0.314222
O      13.18095      9.52101      0.42511         0.196589     -0.311188      1.042864
O      13.28340      9.60441     13.31027         0.188602     -0.106305     -1.124079
O       1.88448      9.57986      4.64229        -0.100573     -0.306806     -0.369221
O      13.33450      9.63630      4.61335        -0.151404     -0.392221      1.124419
O       1.87909      9.43752      8.85258        -0.209934      0.167211      1.312098
O      13.35734      9.54790      8.95256        -0.462053     -0.358992     -0.063636
O       5.69064      1.82158      0.38509         0.057945      0.303157      1.022039
O       5.61287      1.83294     13.17235         0.279248      0.190073      0.320442
O       5.68674     13.25028      0.50103         0.189157      0.235445     -0.194193
O       5.58872     13.45628     13.21510         0.407982     -0.576161      0.524659
O       5.71272      1.90467      4.56994        -0.170249      0.238677      0.737878
O       5.69523     13.35633      4.65558        -0.318992     -0.060278     -0.005754
O       5.56801      2.11876      8.84258         0.462280     -0.749423      0.411317
O       5.70783     13.22551      8.88737        -0.010262     -0.002622     -0.700934
O       5.74339      5.68869      0.45993        -0.252090      0.091510     -1.008297
O       5.71884      5.52735     13.25496        -0.264252      0.492857     -0.697093
O       5.55130      5.70860      4.72584         0.455272     -0.079953      1.172240
O       5.66378      5.71927      8.99720         0.084737     -0.296513      0.272698
O       5.78300      9.60377      0.43271        -0.396067     -0.580242      0.310369
O       5.82223      9.37040     13.22473        -0.119807      0.174863      0.075751
O       5.62025      9.47902      4.68340        -0.140915     -0.205548      0.183091
O       5.80954      9.52997      8.81094        -0.545391      0.114061      0.649603
O       9.58563      1.96900      0.41000        -0.153032     -0.473721     -0.342571
O       9.50038      1.85877     13.17380         0.011400      0.192874      0.354402
O       9.53183     13.32685      0.44143        -0.119437      0.012694      0.639241
O       9.50712     13.28606     13.22624        -0.173813      0.034771     -0.318272
O       9.49333      1.89593      4.61296        -0.041954      0.152674      1.570704
O       9.53955     13.34733      4.65481        -0.128203     -0.339995      0.100678
O       9.35600      1.90183      8.86625         0.462721      0.031269      0.666217
O       9.46137     13.27783      9.08716         0.017436      0.184994     -0.013562
O       9.47955      5.76655      0.41344        -0.048268     -0.114982      1.178350
O       9.58333      5.66236     13.09387        -0.277046      0.265087      1.060605
O       9.37914      5.65220      4.65285         0.328788      0.115257     -0.322100
O       9.33243      5.75978      8.91271         0.521086     -0.463131      0.775371
O       9.39294      9.41823      0.39812         0.325556      0.172994      0.414504
O       9.46620      9.49967     13.10776        -0.440465     -0.305154      1.264617
O       9.45604      9.47779      4.60564         0.379817      0.041078     -0.005393
O       9.54660      9.45683      8.92640        -0.291777      0.315002     -0.477274
O       3.73070      2.02706      2.38068         1.079619     -0.954559      0.639544
O       3.76299      1.78573     15.40595        -0.072851      0.680784      0.103647
O       3.80141     13.27089      2.59482         1.218568      0.163293      0.287705
O       3.87485     13.32383     15.38670        -1.351558     -0.159866      0.099523
O      15.18626      1.91781      2.62479        -1.051133      0.111559     -0.127498
O      15.19701      1.88560     15.26396        -0.660880      0.416120     -0.037546
O       0.10408     13.30352      2.46306        -1.013003      0.132988      0.614914
O       0.03545     13.24447     15.26686        -0.671382      0.172910      0.212344
O       3.76424      1.93886      6.68104        -0.073382     -0.082349      0.196229
O       3.73151     13.17971      6.68947         0.357256      0.313445      0.509033
O      15.13094      1.87903      6.83797         0.071637     -0.305603      0.107990
O      15.15196     13.35460      6.95868         0.334674     -0.115662     -0.215870
O       3.73373      1.99516     10.99919         0.534398      0.055676     -0.104862
O       3.75468     13.19400     11.05400         0.180438     -0.263333      0.095273
O      15.19518      1.78447     11.15431        -0.540937      0.014863     -0.242556
O       0.04241     13.36452     11.06682        -0.986394     -0.282785     -0.341028
O       3.79024      5.65462      2.56702        -0.319207      0.570974      0.046122
O       3.84811      5.55845     15.44930        -1.375444      0.672822      0.025814
O      15.19195      5.64817      2.54362        -0.486872      0.268897      0.441496
O       0.04507      5.65302     15.31361        -0.538455      0.511238      0.018161
O       3.68186      5.76431      6.76431         1.303405     -0.210651      0.473792
O      15.15325      5.69894      6.77679         0.065933     -0.372781      0.419095
O       3.78168      5.61220     11.17787         0.106930     -0.363170      0.020480
O       0.03650      5.87466     10.99485        -0.801234      0.029171      0.364921
O       3.83768      9.53568      2.52322        -0.981755     -0.418541      0.416870
O       3.82665      9.59345     15.27852        -0.087793     -0.276300      0.274604
O      15.16100      9.40886      2.58349         0.495134      0.401213     -0.040294
O       0.01738      9.45382     15.49373        -1.020200      0.103858     -0.270685
O       3.71550      9.55396      6.81475         0.305252     -0.024178     -0.222438
O      15.12431      9.42857      6.85471         0.363613      0.401809      0.023773
O       3.82016      9.50443     11.09215        -0.166241      0.293491     -0.000192
O      15.15575      9.24124     11.06632         0.912260      0.862659     -0.197769
O       7.60459      2.01722      2.45086        -0.264547     -0.302725      0.389153
O       7.55846      1.85664     15.38335         0.911240      0.273020     -0.326249
O       7.66257     13.26461      2.65226        -1.496584      0.434153     -0.135948
O       7.62470     13.35376     15.44042        -0.451777     -0.160821     -0.200213
O       7.58081      1.79350      6.67439        -0.107915      0.562457      0.345366
O       7.54753     13.42034      6.72015         0.485765     -0.522639      0.459112
O       7.54170      1.82966     11.02693         0.446351      0.067293     -0.055995
O       7.46796     13.47747     11.09423         1.856289     -0.331350      0.257360
O       7.54957      5.76480      2.57352         0.658523     -0.645145      0.309890
O       7.56445      5.66914     15.30824         0.417101     -0.095480      0.100741
O       7.60189      5.79683      6.87368        -0.470958     -0.556664     -0.406149
O       7.56802      5.67805     11.15300        -0.177949      0.212927      0.016203
O       7.58572      9.45523      2.65939        -0.545837      0.002257      0.123045
O       7.59918      9.47594     15.32732         0.256692     -0.085263      0.069165
O       7.61125      9.45010      6.57581        -0.762091      0.231010      0.845103
O       7.56807      9.37804     10.92339         0.380791     -0.174347      0.656760
O      11.40938      1.83408      2.65888        -0.184128      0.427952     -0.585432
O      11.38440      1.98247     15.34536         0.222666     -0.536213     -0.268347
O      11.40493     13.22938      2.50355         0.162332      0.319535      0.303810
O      11.38040     13.28410     15.39177         0.454987      0.056213     -0.063735
O      11.36741      1.86812      6.95060        -0.190490      0.113805     -0.208639
O      11.36764     13.21463      6.80783        -0.585813      0.462888      0.414995
O      11.34851      1.97051     10.97025         0.328497      0.276855      0.111554
O      11.34035     13.11319     11.14933        -0.186479      0.330240      0.123035
O      11.35935      5.78610      2.57224         0.484224     -0.123237      0.033202
O      11.34903      5.81342     15.40497         0.891107     -0.636930     -0.280337
O      11.41644      5.69637      6.80442        -1.165923     -0.290196      0.129880
O      11.37288      5.52394     11.00577         0.186174      0.376198      0.071764
O      11.33126      9.47768      2.57103         0.609011      0.268551      0.198233
O      11.32474      9.52105     15.27680         0.577883     -0.525431      0.300859
O      11.45689      9.45159      6.76065        -1.005929      0.120770      0.219016
O      11.39004      9.70652     11.01258        -0.708587     -0.279528      0.270697
O       1.90407      3.78752      2.61879        -0.359415      0.331586      0.242983
O       1.90994      3.81499     15.41127        -0.072458     -0.555363     -0.284643
O       1.92825     15.17049      2.60450         0.126802      0.478313     -0.088443
O       1.78772     15.19646     15.36198         0.666403     -0.435309     -0.098481
O      13.17272      3.85053      2.54006         0.354437     -0.792136     -0.075215
O      13.33005      3.80997     15.28773        -0.394828     -0.184677      0.076454
O      13.26512      0.04686      2.59050         0.396156     -0.429353     -0.233442
O      13.30023      0.00518     15.29301        -0.155730     -0.278877     -0.039578
O       1.84550      3.75209      6.77482        -0.092441      0.524044      0.206786
O       1.87697      0.01297      6.90746         0.102464     -0.705173     -0.513236
O      13.29757      3.76197      6.76175        -0.421118      0.119849      0.459826
O      13.24909     15.14849      6.79422        -0.345519      1.052424      0.679533
O       1.75302      3.79052     11.01367        -0.011074      0.007384      0.281152
O       1.95651      0.02336     11.14934        -0.429732     -0.815633     -0.860898
O      13.42932      3.80272     11.04811        -0.079799     -0.807327      0.255803
O      13.19457     15.13643     11.15328        -0.139761      0.375477     -0.271686
O       1.86432      7.57712      2.58066         0.299512     -0.171637      0.203683
O       1.95786      7.65471     15.47655         0.459050     -1.629089     -0.045398
O      13.25914      7.63505      2.70877         0.107545     -0.766983     -0.112815
O      13.33305      7.56760     15.29077        -0.090883      0.853435      0.241451
O       1.77905      7.62003      6.91117         0.532176     -0.189320     -0.636310
O      13.27227      7.52822      6.71357        -0.008461      1.207275      0.205941
O       2.14571      7.57101     11.05282        -0.758437      0.402865      0.000506
O      13.15338      7.60287     11.15094        -0.154757     -0.396856     -0.180598
O       1.86027     11.36379      2.47581         0.226311      0.534664      0.469992
O       1.81969     11.36195     15.28364         0.628808      0.704629      0.390232
O      13.33743     11.40750      2.61264         0.010420      0.201066     -0.081504
O      13.32448     11.36503     15.48627        -0.348714      0.266913     -0.204144
O       1.69209     11.34434      6.84173         0.481895      1.059597     -0.074882
O      13.25556     11.45267      6.84502         0.507685     -1.183335      0.047256
O       1.86976     11.31594     10.96456        -0.402252      0.437417      0.319681
O      13.40427     11.34709     11.06640         0.339868      0.872364      0.123605
O       5.56928      3.77462      2.58376         0.910602      0.437675      0.054067
O       5.73543      3.74621     15.44807        -0.465301     -0.155274     -0.308469
O       5.73569      0.04083      2.65959        -0.325757     -0.859300     -0.403606
O       5.66411      0.09087     15.52508         0.368925     -1.951173     -0.498829
O       5.66393      3.84554      6.83244         0.211102     -0.354312     -0.159453
O       5.62277      0.06776      6.81482        -0.292319     -0.620800     -0.012835
O       5.62039      3.71622     11.14177         0.712038      1.004650      0.040451
O       5.50047     15.18507     10.92650         0.216553      0.628074     -0.215857
O       5.69988      7.56453      2.70105        -0.560701      0.541431     -0.547983
O       5.60593      7.51336     15.39127         0.162576      1.071175      0.027971
O       5.61658      7.63053      6.89244         0.131573     -0.333781     -0.249523
O       5.58825      7.54442     11.08010         0.375282      0.721778      0.145451
O       5.70656     11.39073      2.66127         0.217506      0.269575     -0.083083
O       5.78396     11.40805     15.19779        -0.029667      0.132826      0.295896
O       5.70306     11.42175      6.75608         0.094272     -0.605024      0.194310
O       5.76353     11.32346     11.05604         0.014017      0.546095      0.290054
O       9.56318      3.80256      2.52089        -0.234673      0.253564      0.401104
O       9.51336      3.81314     15.37066        -0.189208     -0.410091     -0.205961
O       9.45070      0.02516      2.61271         0.019187     -0.099111     -0.242201
O       9.43902     15.19343     15.28824         0.744804      0.297080      0.206345
O       9.51078      3.75981      6.80540        -0.266222      0.749619      0.043099
O       9.52846     15.16316      6.79887         0.042563      0.293975      0.487886
O       9.40774      3.82664     11.16566        -0.023186     -1.334629     -0.666711
O       9.57209      0.08575     11.17001        -0.018474     -1.208407     -0.282313
O       9.54473      7.59210      2.67209        -0.513343      0.005468     -0.008168
O       9.34700      7.49057     15.35178         0.443133      1.761527     -0.542797
O       9.49655      7.60480      6.77533         0.339297     -0.299468     -0.063340
O       9.57155      7.62409     11.05439        -0.304710     -0.501788      0.061775
O       9.44328     11.37395      2.46153         0.070581      0.101630      0.472648
O       9.53862     11.36184     15.29975        -0.535293     -0.228599      0.226002
O       9.51402     11.38692      6.74314        -0.396806     -0.116553      0.363069
O       9.27934     11.37393     11.09985        -0.105796      1.000319     -0.032699
