  # total energy = -7884.42069698 
CRSYTAL
PRIMVEC
    15.3600000000000000    0.0000000000000000    0.0000000000000000
     0.0000000000000000   15.3600000000000000    0.0000000000000000
     0.0000000000000000    0.0000000000000000    17.440000000000000
PRESSURE
0.615845 0.745459 5.24684 -0.212365 -0.077101 -0.005728
PRIMCOORD
320 1
Pb       3.81380      3.82559      4.34898         0.127418      0.147609     -0.425815
Pb       3.86461      3.82026     17.39110        -0.266162     -0.058339     -0.198187
Pb       3.82591     15.34775      4.32698        -0.296752     -0.310141     -0.172412
Pb       3.84663     15.35822     17.41136        -0.389528     -0.245132     -0.422135
Pb      15.32930      3.82166      4.34761         0.230835      0.052707     -0.268616
Pb       0.00349      3.82149     17.43251         0.132658      0.084095     -0.459971
Pb      15.34846     15.33526      4.33230         0.024190     -0.070840     -0.422968
Pb      15.28657     15.33591     17.41752         0.056431      0.048786     -0.587334
Pb       3.81634      3.84848      8.66111        -0.299241     -0.167107     -0.343960
Pb       3.82113     15.33453      8.72589         0.166365      0.149622     -0.462578
Pb      15.27067      3.83083      8.67012         0.511200      0.216226     -0.498484
Pb      15.32688      0.02944      8.68727        -0.187985     -0.269412     -0.732849
Pb       3.84109      3.80888     13.03066        -0.184914     -0.257281     -0.935474
Pb       3.81449     15.31097     13.03725        -0.087239      0.122756     -0.322148
Pb      15.33076      3.79171     13.06228         0.129316     -0.004608     -0.418624
Pb      15.34352     15.35910     13.01204        -0.020765     -0.052237      0.016396
Pb       3.84046      7.67928      4.31219         0.016718     -0.548730     -0.107826
Pb       3.80227      7.66462     17.43636        -0.271789     -0.107825     -0.760670
Pb       0.02672      7.66133      4.32313        -0.072992      0.149675     -0.432567
Pb      15.34508      7.70272     17.38947        -0.172331     -0.285023     -0.049910
Pb       3.85917      7.64169      8.69098        -0.112944      0.273405     -0.332169
Pb      15.33732      7.65128      8.68843         0.059546     -0.084302     -0.429883
Pb       3.82741      7.65992     13.06181        -0.199972     -0.113201     -0.810381
Pb       0.00012      7.67023     13.05799        -0.193940     -0.096953     -0.532829
Pb       3.78485     11.48727      4.32429         0.175275      0.415290     -0.342560
Pb       3.86656     11.45494     17.39444        -0.292999      0.256555     -0.655913
Pb       0.02006     11.53602      4.29284        -0.131735     -0.060024     -0.602783
Pb      15.33123     11.48913     17.39948         0.008292     -0.015037     -0.395178
Pb       3.81050     11.53063      8.70374         0.099216     -0.259465     -0.732231
Pb      15.34752     11.46911      8.68644         0.017056      0.062838     -0.767361
Pb       3.85697     11.50782     13.04381        -0.044930      0.061737     -0.636989
Pb       0.00611     11.49372     13.07344        -0.014161      0.214604     -0.461290
Pb       7.66658      3.79124      4.34976        -0.239332      0.200251     -0.458453
Pb       7.69117      3.84920     17.36717        -0.319787     -0.303182     -0.256520
Pb       7.65834      0.00743      4.31844         0.464154     -0.178550      0.185925
Pb       7.60327     15.34270     17.39567         0.497297      0.089286     -0.762168
Pb       7.66461      3.82044      8.69372        -0.334436     -0.063885     -0.782073
Pb       7.67446     15.31829      8.68141        -0.235601      0.352713     -0.643751
Pb       7.69978      3.85311     13.09779        -0.055137     -0.315737     -0.488021
Pb       7.67799      0.01241     13.04615        -0.036459      0.129710     -0.454654
Pb       7.63237      7.64177      4.31470         0.174862     -0.107963     -0.356915
Pb       7.66431      7.65398     17.41293         0.136192      0.015615      0.051459
Pb       7.64511      7.70365      8.67107         0.003549     -0.048079     -0.298167
Pb       7.65365      7.64560     13.04208         0.151829      0.365106     -0.797947
Pb       7.65409     11.48529      4.32902         0.212165     -0.369920     -0.190927
Pb       7.64413     11.53712     17.38139         0.215088     -0.115437     -0.234911
Pb       7.68391     11.49569      8.69540        -0.123233     -0.247857     -0.524957
Pb       7.71498     11.54540     13.06650        -0.194182     -0.397842     -0.892337
Pb      11.52850      3.79765      4.34068        -0.253285      0.060963     -0.688380
Pb      11.50109      3.82382     17.42225         0.097692      0.021211     -0.207027
Pb      11.50915      0.00396      4.30037         0.247322     -0.479074     -0.240278
Pb      11.49373     15.33829     17.35647        -0.250645     -0.069506      0.141964
Pb      11.52548      3.87539      8.68572        -0.172388     -0.137023     -0.410667
Pb      11.50078     15.32468      8.68403         0.159717     -0.074764     -0.843592
Pb      11.50875      3.79437     13.08926        -0.080760      0.263369     -0.411757
Pb      11.47407     15.34001     13.03837         0.016351     -0.204120     -0.191503
Pb      11.52687      7.67128      4.30923        -0.389305      0.001619     -1.112280
Pb      11.47962      7.64541     17.42186         0.094617     -0.097835     -0.332615
Pb      11.51851      7.66396      8.68297        -0.116566     -0.345910     -0.274150
Pb      11.47672      7.67658     13.03314         0.312667     -0.228227     -0.330998
Pb      11.52143     11.47274      4.34924        -0.396790      0.358375     -0.660378
Pb      11.47629     11.49752     17.40227        -0.038816     -0.032727     -0.198809
Pb      11.49800     11.49900      8.72763        -0.109896      0.302559     -0.654328
Pb      11.50039     11.50347     13.02068        -0.209128     -0.291859     -0.198513
Ti       1.94889      1.94869      2.30797        -0.377637     -0.777472      0.914455
Ti       1.96057      1.91670     15.35947        -0.628090     -0.447803      1.527325
Ti       1.89656     13.42409      2.21215         0.087411      0.280503      1.953565
Ti       1.88456     13.47430     15.38820        -0.117972     -0.525418      0.393146
Ti      13.49272      1.90597      2.33959        -0.581977     -0.253997      1.090902
Ti      13.44479      1.95344     15.37504         0.156663     -0.868992      0.935805
Ti      13.41088     13.36916      2.29416        -0.413451      0.604083      1.647037
Ti      13.38815     13.45046     15.32574         0.561120     -0.222078      1.576515
Ti       1.92561      1.86894      6.64759        -0.463098      0.941727      1.266440
Ti       1.89603     13.39564      6.67046        -0.469710      0.303562      1.404183
Ti      13.44437      1.93183      6.64939         0.095900     -0.741053      1.104092
Ti      13.39599     13.39278      6.63061         0.080792      0.753449      2.000009
Ti       1.84091      1.86392     10.97411         0.725556      1.057207      2.474787
Ti       1.88176     13.42958     10.97932         0.075005     -0.063547      2.355430
Ti      13.37759      1.85769     11.02182         0.937798      0.436992      1.059111
Ti      13.41847     13.36984     11.03388        -0.376150      0.191704      2.194161
Ti       1.84691      5.75169      2.31033         0.543584     -0.173370      1.937104
Ti       1.88121      5.72707     15.32731        -0.307644     -0.023812      1.676312
Ti      13.41385      5.75392      2.29906        -0.261894      0.154669      1.467264
Ti      13.41664      5.72709     15.34761        -0.339015      0.250925      2.215974
Ti       1.86968      5.81537      6.58829        -0.367678     -1.362874      1.913755
Ti      13.38124      5.80137      6.61532         0.646189     -0.659962      1.690638
Ti       1.88822      5.73726     11.00206         0.018960     -0.530699      1.845448
Ti      13.47154      5.67438     11.06438        -0.739706      0.502053      0.956244
Ti       1.96141      9.58898      2.27152        -1.121387     -0.313559      2.276058
Ti       1.87365      9.56820     15.33309         0.014982      0.274856      2.673434
Ti      13.44897      9.55623      2.28613         0.280083      0.200330      1.523348
Ti      13.33401      9.57482     15.37827         0.432396     -0.332500      1.934577
Ti       1.86569      9.54412      6.61104         0.299622      0.678781      2.625443
Ti      13.33596      9.62878      6.60932         1.537407     -0.207035      2.278563
Ti       1.87052      9.60250     10.97541         0.105790     -0.479159      1.262128
Ti      13.41310      9.53882     11.00609        -0.056187     -0.284432      1.495242
Ti       5.70991      1.82378      2.28069         0.619388      1.273298      2.295137
Ti       5.70648      1.86354     15.32416         0.679477      0.342078      0.317080
Ti       5.73810     13.39633      2.33169         0.113636     -0.451956      1.295477
Ti       5.71003     13.39292     15.30707         0.016423      0.208591      1.645158
Ti       5.68125      1.90054      6.63115         1.059912      0.093515      2.078810
Ti       5.67084     13.42451      6.62058         0.414349      0.221567      1.159439
Ti       5.69779      1.89897     11.04781         0.709693      0.015220      0.221410
Ti       5.72022     13.43573     10.99056         0.040932     -0.565536      1.288858
Ti       5.73021      5.69577      2.23842        -0.164979     -0.162742      2.100385
Ti       5.67129      5.76669     15.37174         0.414910     -0.985375      1.813479
Ti       5.69143      5.81846      6.69881         0.856025     -0.977916      1.262766
Ti       5.72219      5.72120     11.05281         0.356510     -0.021159      0.792370
Ti       5.69726      9.54253      2.29004         1.740563      0.276433      2.270352
Ti       5.76587      9.55476     15.34622        -0.931920      0.327177      1.869832
Ti       5.73090      9.60133      6.59276         0.134567     -0.143094      2.135728
Ti       5.67467      9.49572     11.01395         1.426213      1.141017      1.082784
Ti       9.59334      1.88368      2.37457         0.297284      0.080702      0.236235
Ti       9.58713      1.95851     15.39325        -0.189692     -1.009955      1.664814
Ti       9.55713     13.38732      2.30905         0.604736     -0.003871      0.794689
Ti       9.57693     13.39073     15.34614        -0.566627      0.522611      1.583886
Ti       9.55326      1.91656      6.63385         0.031601     -0.343430      1.293578
Ti       9.49960     13.37062      6.67393         0.809676      0.562119      1.020186
Ti       9.58070      1.92138     11.00396        -0.253774     -0.353580      2.442340
Ti       9.54336     13.41786     11.02815         0.270721      0.099839      0.655963
Ti       9.53245      5.72668      2.22799         0.282982      0.526545      1.905021
Ti       9.51521      5.74872     15.36636         1.031677     -0.012639      1.034902
Ti       9.54657      5.72029      6.62098        -0.283330      0.082417      2.502521
Ti       9.55184      5.72674     11.03972         0.780244      0.090421      0.843621
Ti       9.56935      9.57918      2.28629         0.022187     -0.191368      1.307255
Ti       9.52684      9.51871     15.34837         0.613249      0.971832      1.296590
Ti       9.61171      9.55149      6.65091        -0.900752      0.479474      0.914400
Ti       9.60502      9.51626     10.93449        -0.945949      0.880047      2.010433
O       2.00956      1.85257      0.58786        -0.224669      0.083803     -1.225946
O       2.02103      1.81599     13.65817        -0.132560      0.288925     -1.419299
O       1.84738     13.45289      0.50751         0.086079     -0.040732     -1.477988
O       1.85539     13.54466     13.63022         0.049728     -0.530532     -0.258530
O      13.48045      2.00693      0.63260         0.072173     -0.340516     -1.585489
O      13.50160      1.88414     13.64693        -0.366995      0.029265     -0.585351
O      13.36301     13.36776      0.59029         0.251763      0.201658     -1.545016
O      13.51935     13.50154     13.61371        -0.245523     -0.299954     -1.163012
O       1.85913      1.98888      4.92235         0.296259     -0.432570     -0.982947
O       1.86462     13.38713      4.95586         0.377176     -0.143840     -1.435515
O      13.49064      1.80797      4.91063        -0.143836      0.476829     -0.551902
O      13.34739     13.45060      4.92678         0.421154     -0.252991     -1.461126
O       2.00251      1.93827      9.30757        -0.208907     -0.224166     -2.421790
O       1.88412     13.49122      9.28661         0.270697     -0.464959     -1.636905
O      13.52383      1.95911      9.28470        -0.576516     -0.174755     -0.318744
O      13.33683     13.49991      9.36461         0.005195     -0.460551     -2.335352
O       1.86265      5.63091      0.62911         0.071140      0.384233     -2.144302
O       1.87197      5.76856     13.60750         0.336527      0.137001     -1.239857
O      13.44266      5.77239      0.60264        -0.006802     -0.282832     -1.901340
O      13.48276      5.73011     13.65606        -0.018275     -0.211688     -1.704918
O       1.83498      5.71912      4.88978        -0.008320      0.060713     -1.709170
O      13.57148      5.72363      4.91232        -0.720395      0.280151     -1.153700
O       1.85060      5.81915      9.31703         0.072084     -0.027088     -2.118428
O      13.42632      5.72005      9.33305        -0.189465     -0.022280     -1.115774
O       1.75722      9.63991      0.60366         0.784188     -0.527308     -2.299212
O       1.91645      9.60263     13.63218        -0.098808     -0.247778     -1.675010
O      13.30052      9.52381      0.58964         0.361575      0.030482     -1.820246
O      13.34474      9.55736     13.69560         0.262963      0.031308     -2.069627
O       2.04694      9.49320      4.93686        -0.359054      0.547851     -2.354672
O      13.47748      9.61348      4.92056        -0.321135     -0.096014     -1.817084
O       1.84754      9.55370      9.24816         0.228690      0.306021     -0.786306
O      13.32765      9.58975      9.28885         0.135401     -0.070203     -1.012271
O       5.67519      1.73517      0.58503         0.216223      0.186447     -1.671393
O       5.72675      1.87396     13.57048        -0.149621      0.218435     -0.384520
O       5.63594     13.34438      0.62124         0.560866      0.250332     -1.644128
O       5.72161     13.41452     13.61199        -0.017250     -0.020493     -1.887906
O       5.67175      1.88849      4.92765         0.152485     -0.187198     -1.566670
O       5.54776     13.49364      4.90895         0.291075     -0.131986     -1.478825
O       5.77084      1.93072      9.31068        -0.195361      0.086625     -0.878724
O       5.71961     13.43462      9.27050        -0.043379     -0.161644     -1.269664
O       5.85068      5.76489      0.53446        -0.385320     -0.040919     -1.611289
O       5.76708      5.72756     13.66285        -0.288577      0.104965     -1.447973
O       5.83339      5.81637      5.02605        -0.351292      0.046570     -2.220896
O       5.73052      5.77369      9.35366         0.006529     -0.087547     -2.523667
O       5.68357      9.60853      0.59821        -0.021750     -0.262208     -2.232147
O       5.79907      9.60032     13.65858        -0.254485     -0.395915     -2.046355
O       5.85556      9.43984      4.91000        -0.366654      0.162367     -1.875381
O       5.74136      9.50894      9.30621        -0.183431      0.133366     -1.602471
O       9.63753      1.83539      0.64440        -0.335988      0.029916     -1.099629
O       9.61473      1.98674     13.70717        -0.031737     -0.063216     -1.926064
O       9.58490     13.40702      0.56900        -0.315480      0.047252     -0.858719
O       9.46250     13.37469     13.63681         0.211206     -0.070981     -1.251205
O       9.55517      2.09145      4.90936         0.240364     -0.450931     -1.154804
O       9.58675     13.33510      4.98134         0.056653     -0.115296     -1.823408
O       9.61461      1.89886      9.31372         0.059962      0.110296     -1.812503
O       9.55930     13.47061      9.27741        -0.036772     -0.129346     -0.571200
O       9.58632      5.91229      0.51878        -0.506308     -0.584277     -1.440525
O       9.43178      5.62799     13.63690         0.321467      0.492047     -0.632765
O       9.62604      5.72531      4.93831         0.050528     -0.134798     -1.989988
O       9.58578      5.74072      9.32134         0.035785     -0.265030     -1.124971
O       9.50156      9.56283      0.56608         0.109566     -0.058352     -1.199282
O       9.55706      9.65399     13.63612        -0.123978     -0.356576     -0.997960
O       9.61921      9.73273      4.93078         0.189467     -0.445688     -0.953129
O       9.51228      9.61273      9.21841         0.486456     -0.043966     -1.107455
O       3.82497      1.90952      2.76214         0.334796     -0.585768      0.077955
O       3.84562      1.88833     15.80725        -0.024032      0.287847      0.184047
O       3.88276     13.40986      2.68999        -0.865394      0.265433      0.309599
O       3.82810     13.46244     15.75678         0.063819     -0.910905      0.208673
O       0.02350      1.88150      2.71455        -0.107326      0.091766      0.144320
O       0.00359      1.86340     15.69017         0.180735     -0.253726      0.686890
O       0.02359     13.46142      2.76087        -0.443537     -0.661752     -0.160373
O      15.32523     13.38817     15.76589         0.011672      0.428672      0.334069
O       3.82162      1.95543      7.07825        -0.124570     -0.145131      0.170386
O       3.79071     13.54637      7.09209         0.069062     -0.975134      0.382015
O       0.02042      1.85398      7.10570        -0.611594      0.428063      0.132662
O       0.01515     13.39460      7.09094        -0.612296     -0.100085      0.222301
O       3.85323      1.95982     11.45822        -0.750521     -0.294528      0.165851
O       3.81264     13.42952     11.41471        -0.244196     -0.225933      0.118907
O      15.30996      1.94154     11.48107         0.109583     -0.646343     -0.184284
O      15.33069     13.33590     11.37098        -0.086947      0.111949      0.306020
O       3.78655      5.68402      2.73276         0.604998      0.376114     -0.067719
O       3.76948      5.71524     15.86362         0.214828     -0.059857     -0.175103
O      15.31275      5.78147      2.68640         0.493790     -0.387857      0.356320
O       0.02183      5.63562     15.74974        -0.756562      0.379317      0.289390
O       3.74731      5.76721      7.03917         0.452926      0.272594      0.288874
O      15.30849      5.75771      7.08758        -0.306091      0.224351      0.130579
O       3.84053      5.78449     11.36931        -0.735853     -0.116366      0.770976
O      15.33476      5.65403     11.39827         0.266559      0.358610      0.541009
O       3.89027      9.46875      2.74251        -0.922208      0.512448     -0.027369
O       3.78607      9.52545     15.77214         0.048141      0.116484      0.323650
O       0.08643      9.62062      2.64971        -0.929872     -0.064594      0.686579
O      15.31587      9.42677     15.82797        -0.382142      0.788037     -0.356883
O       3.80692      9.54728      6.99980         0.247139      0.137842      0.473802
O      15.30934      9.68055      7.04797        -0.147117     -0.409271      0.106593
O       3.80878      9.59836     11.40916        -0.538728     -0.509819      0.335589
O      15.35998      9.55623     11.38655        -0.346523      0.244726      0.313008
O       7.72777      1.88796      2.75977        -0.802216      0.192172      0.063004
O       7.63520      1.90201     15.74883         0.126445      0.145027      0.503730
O       7.65596     13.32002      2.82211         0.286754      0.444697     -0.348424
O       7.63501     13.33998     15.78728        -0.099518      0.404032      0.273502
O       7.64864      1.90050      7.11427        -0.216715      0.066424     -0.018715
O       7.61549     13.40438      7.01514        -0.195641      0.018552      0.395494
O       7.71362      1.84865     11.44063        -0.480579      0.147968      0.152352
O       7.59863     13.49944     11.50526         0.649351     -0.506732     -0.244727
O       7.60259      5.72576      2.76058         0.448744     -0.302218     -0.246929
O       7.64536      5.67936     15.79088        -0.386587      0.475036      0.221579
O       7.64722      5.82163      7.08105         0.329625     -0.355118      0.357335
O       7.71981      5.79883     11.45157        -0.941326     -0.288657      0.340152
O       7.71088      9.61546      2.75213        -0.727884     -0.102020     -0.021388
O       7.59684      9.48542     15.80222         0.456957      0.050870      0.099604
O       7.69623      9.65766      7.10002        -0.574411     -0.476045      0.045440
O       7.71562      9.48853     11.42480        -0.333276      0.353961      0.147166
O      11.53606      1.89361      2.69256        -0.023599      0.190022      0.745227
O      11.52609      1.76637     15.85321        -0.244326      1.062735     -0.222272
O      11.50819     13.33291      2.73267         0.066830      0.514058      0.208676
O      11.48041     13.42790     15.71483        -0.004347     -0.240495      0.077062
O      11.57923      1.86966      7.07604        -0.925533      0.092068     -0.005749
O      11.53187     13.42064      7.03059        -0.693971      0.109257      0.685160
O      11.53567      1.84558     11.61987        -0.473807      0.633429     -0.799792
O      11.49093     13.32682     11.48528        -0.054253      0.482325      0.064213
O      11.46382      5.78904      2.57943         0.345189      0.182089      0.801449
O      11.44049      5.65813     15.79867         0.613008      0.223233     -0.086116
O      11.45134      5.63937      7.14570         0.432470      0.696788     -0.341073
O      11.51223      5.64782     11.49430        -0.190560      0.298870      0.111557
O      11.53719      9.50028      2.66382        -0.270821      0.019734      0.649535
O      11.44478      9.53187     15.73340         0.196769      0.246191      0.442833
O      11.50009      9.63141      7.08768        -0.246700     -0.159789      0.119949
O      11.50688      9.45027     11.46303        -0.283145      0.641491     -0.108082
O       1.91162      3.80297      2.67762        -0.245123      0.249665      0.437801
O       1.89814      3.79656     15.79019         0.331156      0.066157     -0.015724
O       1.88771     15.28434      2.70359         0.452691      0.626788      0.171819
O       2.02972     15.30162     15.74003        -0.708325      0.875320      0.609937
O      13.40124      3.85707      2.78845         0.225638     -0.396025      0.017916
O      13.46282      3.79103     15.85384        -0.453876      0.159887     -0.026968
O      13.42867     15.30895      2.71842         0.045104      0.348812      0.041691
O      13.38745     15.32840     15.85536         0.502625     -0.095342      0.014858
O       1.83636      3.84550      7.04095         0.286336      0.046518      0.319603
O       1.90493      0.00070      7.11556         0.036165     -0.112227     -0.084226
O      13.37223      3.86331      7.07380         0.465225     -0.433708     -0.083591
O      13.47491     15.31321      7.12697        -0.097385      0.292698      0.104015
O       1.89569      3.78072     11.32074         0.218302      0.430158      0.776606
O       1.88162     15.35070     11.40317         0.006474     -0.488862      0.076534
O      13.48991      3.79407     11.54354        -0.681534     -0.362733     -0.198761
O      13.35240     15.30454     11.39738         0.377773      0.268059      0.221097
O       1.88784      7.67441      2.83843         0.335396     -0.247192     -0.664273
O       1.79816      7.63479     15.92079         1.017221     -0.200563     -0.559791
O      13.53221      7.69125      2.73710        -0.457339     -0.421370      0.429487
O      13.29870      7.57944     15.69521         0.523183      0.569216      0.564733
O       1.80389      7.69500      7.02654         0.098776     -0.365223      0.285429
O      13.34607      7.65583      7.11605        -0.036935      0.428007     -0.268121
O       1.83343      7.63397     11.39138         0.333400      0.783318      0.546004
O      13.45674      7.63390     11.50531        -0.045453     -0.141311      0.038553
O       1.93603     11.49974      2.63060         0.532638      0.146738      0.638737
O       1.86628     11.45287     15.87300         0.084174      0.141146     -0.460575
O      13.45015     11.48007      2.67390         0.253943     -0.128730      0.477757
O      13.46592     11.48963     15.85272        -0.490470      0.006972     -0.404207
O       1.93171     11.50476      7.12494         0.194201     -0.137485      0.091098
O      13.39935     11.49128      7.11425        -0.042075      0.266540      0.081017
O       1.90726     11.50621     11.54224         0.027735     -0.090407     -0.529717
O      13.36582     11.37292     11.53213         0.332829      1.079462     -0.207280
O       5.71152      3.75508      2.68684         0.240765      0.362802     -0.016729
O       5.75761      3.79478     15.87309        -0.311625      0.181810     -0.179633
O       5.96779      0.00459      2.75694        -1.309380     -0.845992     -0.273388
O       5.67538     15.35162     15.70270         0.579461     -0.486667      0.456272
O       5.76954      3.84791      6.93530        -0.249488     -0.042237      0.867720
O       5.68841     15.31404      7.04676         0.280079      0.720663      0.321625
O       5.72909      3.86346     11.38493         0.314900     -0.729267      0.690634
O       5.70241     15.34319     11.33386        -0.000078     -0.077486      0.506207
O       5.77531      7.59047      2.74010        -0.138426      0.532890     -0.265190
O       5.54462      7.60681     15.73508         0.850223      0.508193      0.281123
O       5.74585      7.69978      7.13433        -0.138700      0.104183      0.246588
O       5.74538      7.61903     11.34926        -0.100716      0.561741      1.213778
O       5.77405     11.45214      2.69440        -0.485178      0.132698      0.424550
O       5.75822     11.47829     15.67476        -0.404904     -0.205361      0.622245
O       5.74076     11.49900      6.87987        -0.543884      0.026006      0.698106
O       5.71806     11.42959     11.32988         0.123681      0.806893      0.589864
O       9.57434      3.86042      2.67620         0.174970     -0.329141      0.129394
O       9.65329      3.85488     15.82011        -0.636941     -0.620201      0.402905
O       9.63688     15.28954      2.77132        -0.391718      0.247731      0.198470
O       9.50067     15.35181     15.67800         0.144000     -0.523644      0.575867
O       9.52900      3.78420      7.04749         0.155671      0.557057      0.560807
O       9.46843      0.01609      6.96699         0.665249     -0.389585      0.532864
O       9.53100      3.78428     11.56512         0.414697      0.200827     -0.531446
O       9.59920     15.32060     11.42770         0.263119      0.217547      0.399746
O       9.49642      7.65133      2.66378         0.390252     -0.052294      0.513272
O       9.59255      7.66563     15.81388        -0.430961     -0.549370     -0.260248
O       9.59575      7.66503      6.96160         0.336786     -0.084296      0.405960
O       9.59516      7.68566     11.36202         0.270900     -0.982842      0.436019
O       9.68221     11.51297      2.66477        -0.364343     -0.597666      0.311197
O       9.59053     11.44461     15.82419        -0.409801      0.335719      0.015130
O       9.55432     11.49638      7.10319         0.327256      0.129081      0.542482
O       9.59922     11.55117     11.42185        -0.288141     -0.993177      0.023323
