  # total energy = -7877.87419318 
CRSYTAL
PRIMVEC
    15.2000000000000000    0.0000000000000000    0.0000000000000000
     0.0000000000000000   15.2000000000000000    0.0000000000000000
     0.0000000000000000    0.0000000000000000    17.000000000000000
PRESSURE
7.6882 7.74435 3.30775 0.043668 0.057642 0.101683
PRIMCOORD
320 1
Pb       3.68331      3.92668      4.32206         0.017989     -0.357822     -0.426795
Pb       3.84033      3.92678      0.05932        -0.065944     -0.811332     -0.545292
Pb       3.70243      0.12506      4.39115        -0.413100     -0.070134     -1.106268
Pb       4.00764     15.17095      0.05448        -1.433899      0.330952      0.055118
Pb      15.18133      4.12788      4.33448        -0.101469     -1.335939     -0.166784
Pb      15.14516      3.74907     16.96905        -0.128773      0.076022     -0.279354
Pb       0.08360      0.18048      4.21029        -0.396630     -0.558321     -0.030330
Pb       0.06209     15.14900     16.90605         0.252806      0.249880      0.340961
Pb       4.00845      3.57562      8.49671        -0.657882      0.813492     -0.129106
Pb       3.81023     15.09207      8.52877        -0.141964      0.212744     -0.145144
Pb      15.14077      3.76813      8.45040         0.489262     -0.301109     -0.487769
Pb       0.01199     15.12784      8.71470        -0.271539      0.128289     -0.790800
Pb       3.77522      3.78530     12.76455         0.048476      0.236092     -0.501800
Pb       3.79190     15.07104     12.79654         0.398528      0.314022     -0.847890
Pb       0.12400      3.59274     12.78371        -0.055209      0.611636     -0.107439
Pb       0.03203     15.09914     12.74561        -0.052478      0.280360     -0.429626
Pb       3.72823      7.56713      4.29750         0.145314      0.662790      0.300649
Pb       3.89386      7.66905      0.26282        -0.245216      0.305703     -1.029052
Pb      15.14284      7.60841      4.12603         0.209319      0.272155      0.652778
Pb       0.12088      7.58333     16.91534        -0.644045     -0.038241      0.262976
Pb       3.78367      7.54307      8.42633         0.154202     -0.014461      0.188923
Pb      15.00903      7.51314      8.47469         1.094991      0.573134     -0.287320
Pb       3.68094      7.52075     12.72231         0.312355     -0.471207     -0.279384
Pb      15.09822      7.47159     12.71290         0.447154     -0.033681     -0.313934
Pb       3.55930     11.59899      4.28765         0.367398     -1.128010      0.373953
Pb       3.96093     11.39421      0.11518        -0.668056     -0.256669     -0.282271
Pb      14.95973     11.54531      4.29438         1.199068      0.182623     -0.112336
Pb       0.05870     11.45717     16.95042        -0.119626     -0.290527      0.023036
Pb       3.82492     11.43469      8.44264        -0.241815     -0.121086      0.255957
Pb      15.02720     11.24835      8.61813         0.473524      0.447286     -0.119594
Pb       3.61072     11.20596     12.87123         0.763778      0.604334     -0.587129
Pb      15.12073     11.27670     12.62389        -0.369901      0.301107      0.203618
Pb       7.51840      3.70270      4.11297         0.311450      0.584526      0.326421
Pb       7.64792      3.85966      0.04822        -0.489819     -0.234178     -0.708645
Pb       7.50588     15.18639      4.26955         0.670580     -0.034896     -0.322070
Pb       7.58412     15.09793      0.08491         0.304320      0.115048     -0.390462
Pb       7.81609      3.79207      8.21729        -0.883747     -0.096766      0.956448
Pb       7.53391     15.11437      8.41985         0.163982      0.638542      0.080756
Pb       7.44703      3.72097     12.68310         0.256203      0.602321      0.106201
Pb       7.62945      0.18862     12.67211        -0.421723     -1.217441      0.217971
Pb       7.67770      7.51154      4.41660        -0.339461      0.418074     -0.221116
Pb       7.50086      7.61467     16.96035        -0.143110     -0.275024      0.094040
Pb       7.63874      7.62778      8.43530        -0.531149     -0.253952     -0.645172
Pb       7.59014      7.58652     12.80055        -0.088196     -0.503579     -0.537494
Pb       7.52333     11.24217      4.12563         0.213483      0.125269      1.266338
Pb       7.71350     11.43850      0.02518        -0.266959     -0.016015     -0.366079
Pb       7.44751     11.47128      8.32961         0.756589     -0.582938      0.357627
Pb       7.49831     11.29763     12.70545         0.298352      0.862876     -0.241290
Pb      11.44085      3.84555      4.05932         0.296553     -0.142497      0.766555
Pb      11.46828      3.82109      0.02751         0.303958     -0.477317     -0.970970
Pb      11.46388     15.17977      4.26508        -0.084938      0.197699     -0.527278
Pb      11.40558     15.03744     16.94139        -0.294360      0.628301     -0.226363
Pb      11.41999      3.67486      8.43001        -0.364595      0.394351     -0.263131
Pb      11.25120     15.16117      8.56130         0.524826      0.040924     -0.026979
Pb      11.37099      3.75128     12.76047        -0.108921      0.012056     -0.124999
Pb      11.35075      0.07621     12.82744        -0.084216     -0.218909     -0.682717
Pb      11.53615      7.57804      4.11625        -0.887941     -0.034158      0.317313
Pb      11.29639      7.53299     16.92050         0.455827      0.021638      0.418415
Pb      11.38203      7.58766      8.34003        -0.474461     -0.501122      0.307085
Pb      11.26504      7.48384     12.59830         0.529264      0.642380      0.588196
Pb      11.46822     11.38997      4.21827        -1.313640      0.036180     -0.136061
Pb      11.47116     11.37188     16.91470        -0.592522      0.306478      0.020739
Pb      11.32688     11.45231      8.66309        -0.065463      0.132332     -0.584294
Pb      11.32247     11.21087     12.86593         0.004781      0.085668     -0.936300
Ti       1.85821      1.99190      2.24887         0.676779     -0.761879      0.267245
Ti       1.95774      1.87619     15.10882        -0.318803     -0.078676      0.251049
Ti       1.85901     13.30241      2.31650        -0.837082      1.217909     -0.982036
Ti       1.88431     13.19513     14.87267         0.674288      1.090432      0.922942
Ti      13.30331      1.89406      2.18834         0.508968     -0.128920      0.113338
Ti      13.29873      1.84395     14.91385        -0.654075      1.028801      1.009422
Ti      13.23781     13.31193      2.15891         1.204530      0.825455      0.264356
Ti      13.30900     13.28425     14.89297        -0.440765     -0.297307     -1.086204
Ti       1.81758      1.86342      6.50828         0.214404      1.139493      0.271300
Ti       1.75923     13.29537      6.64824         1.011499      0.464940     -1.093644
Ti      13.27724      1.85547      6.44193         0.198710      0.533675      0.473893
Ti      13.26846     13.37326      6.49028         0.041953      0.515444      0.963675
Ti       1.87965      1.96029     10.61014         0.996898     -0.770601      0.887507
Ti       1.96104     13.27199     10.80009        -0.056131      0.226293     -0.375817
Ti      13.26537      1.92768     10.64866         0.007229     -1.218034      0.297744
Ti      13.22233     13.32976     10.78920        -0.032839     -0.101938      0.676555
Ti       1.90835      5.76575      2.20166        -0.272049      0.056238      0.418505
Ti       1.92468      5.64582     15.03656        -0.413958     -0.159428     -0.876697
Ti      13.31417      5.70806      2.08891         0.438395     -0.685662     -1.345886
Ti      13.30238      5.72259     14.90282         0.569488     -1.278788      1.761815
Ti       1.96211      5.68610      6.55629        -0.144573     -0.672170      0.379667
Ti      13.33957      5.69235      6.55752        -1.260845     -0.351322     -1.071570
Ti       1.95585      5.68202     10.61849         0.503045     -0.154998      0.082053
Ti      13.33545      5.64972     10.64295        -0.041663     -0.066731      0.793409
Ti       1.77173      9.52161      2.34898         1.066347      0.287610      0.035780
Ti       1.83860      9.42492     15.02163         0.727781     -0.060482      0.736122
Ti      13.22312      9.52133      2.20438        -0.161197      0.034878     -0.859229
Ti      13.19216      9.43045     15.01784         1.568217      0.662766     -1.084665
Ti       1.75649      9.51175      6.54658         0.739867     -0.927024     -0.773766
Ti      13.17870      9.58358      6.48530         0.422283     -0.078614      0.260740
Ti       1.86376      9.46796     10.73535        -0.037819     -0.234866     -1.462160
Ti      13.20180      9.44823     10.67304         0.072683      0.017079      0.994482
Ti       5.69746      1.89967      2.28513        -0.654398     -0.077552     -0.297347
Ti       5.74822      1.90019     15.04849        -0.480483      0.247646      1.110688
Ti       5.64763     13.30264      2.32080        -0.167930     -0.233825      0.492301
Ti       5.63783     13.24467     14.99706         0.863359     -0.017987     -1.882904
Ti       5.66891      1.86678      6.34074         0.780901      0.262405      0.648032
Ti       5.67244     13.34605      6.37387        -0.767391     -0.703508      1.393020
Ti       5.67512      1.86888     10.63707        -0.527692      0.049653      0.909147
Ti       5.76534     13.28366     10.61081        -1.124627      0.167841      1.080698
Ti       5.65334      5.70107      2.19531         0.279659      0.345610      1.158849
Ti       5.66161      5.69569     14.90800         0.147587     -0.433842      0.887932
Ti       5.70048      5.60637      6.40651         0.834036      1.144208      0.825970
Ti       5.76875      5.73397     10.61105        -0.454848     -1.528424      1.034283
Ti       5.58749      9.45409      2.31903        -0.286771      0.190739     -0.263722
Ti       5.63949      9.52857     14.97018         0.135173     -1.051732      1.355067
Ti       5.54595      9.43873      6.50380         1.209568     -0.652345      0.139740
Ti       5.68803      9.44131     10.74149        -0.729479      0.300800     -1.214245
Ti       9.52246      1.88581      2.09114         0.415896     -0.391451      0.968515
Ti       9.43441      1.88873     15.07532         0.926922      0.175529      0.117483
Ti       9.45383     13.25377      2.32151         0.771913      0.188907     -0.106163
Ti       9.46652     13.29244     14.78838        -0.257419      0.311086      0.596514
Ti       9.50330      1.81822      6.37016        -0.098833      0.426973      1.530797
Ti       9.49458     13.32430      6.46156        -0.013428     -1.230355     -1.793951
Ti       9.48537      1.90455     10.72087        -0.236241     -0.288491     -0.667000
Ti       9.43493     13.28819     10.68533         0.391781     -0.296837      1.077266
Ti       9.44799      5.68300      2.15345        -0.327700      0.892781     -0.398427
Ti       9.48345      5.68970     14.98948        -0.843510     -1.005900      1.677129
Ti       9.54649      5.70627      6.32870         0.174824     -0.116589      0.721687
Ti       9.52282      5.62539     10.67857        -0.359386     -0.406333     -0.103562
Ti       9.37761      9.44484      2.21002         0.645275      0.256575      0.722905
Ti       9.41191      9.46215     15.01091        -0.150633      1.372774     -1.086819
Ti       9.48941      9.53386      6.51765        -1.724591     -0.158282     -1.452788
Ti       9.37603      9.43566     10.66352         1.247137      0.642508      1.131334
O       1.90465      1.89180      0.49322        -0.227796      0.167025     -0.661479
O       1.85454      1.95891     13.32772         0.208709     -0.085178     -0.482457
O       1.86215     13.32482      0.52755        -0.382732     -0.456437      0.010635
O       1.92612     13.18403     13.07534         0.201297      0.403976      0.323707
O      13.20632      1.91196      0.41534         0.350862     -0.002695      0.102350
O      13.25274      1.88548     13.12098         0.219835      0.150213      0.080332
O      13.22947     13.28183      0.36666         0.153197     -0.208248     -0.383463
O      13.43459     13.32873     13.07417        -0.914880     -0.083825      1.009084
O       1.80665      1.94786      4.70719         0.683916     -0.226586     -0.085893
O       1.74688     13.35803      4.79496         0.473806     -0.007433      0.763933
O      13.18084      1.86339      4.67921         0.210914     -0.136902     -0.268685
O      13.39882     13.45169      4.70320        -0.639525     -0.558424      0.309997
O       1.97291      1.84020      8.86971        -0.381848      0.512918     -0.552703
O       2.00569     13.31461      8.98839        -0.490181     -0.095865     -0.121899
O      13.32633      1.87392      8.84957        -0.086407      0.135016      0.886968
O      13.25308     13.41356      9.01368         0.116730     -0.488569     -0.185632
O       1.96694      5.95612      0.43947        -0.114124     -0.820235     -0.057224
O       1.95341      5.63505     13.22818        -0.220599      0.070271     -0.270231
O      13.31564      5.62480      0.25724        -0.118798      0.368040      1.865074
O      13.40407      5.65759     13.14588        -0.189016      0.038491     -0.352361
O       1.81900      5.72269      4.76044         0.219374     -0.321071     -0.922092
O      13.22087      5.65357      4.76596         0.485487      0.297323     -0.824733
O       2.05230      5.56859      8.84933        -0.639936      0.374039     -0.193535
O      13.29659      5.65773      8.82381         0.046426      0.221715      0.575098
O       1.89372      9.47608      0.56577         0.028789      0.164870     -0.704755
O       1.87699      9.56458     13.26053         0.088974     -0.560460     -0.680277
O      13.21908      9.64286      0.45034        -0.070257     -0.176569     -0.976598
O      13.10165      9.48127     13.21968         0.533299     -0.265073      0.092931
O       1.82354      9.49676      4.75251        -0.564231     -0.036106      0.517090
O      13.27463      9.67893      4.68689        -0.288170     -0.587566      0.073844
O       1.90966      9.41073      8.94140        -0.138324      0.288159      0.160240
O      13.22981      9.54649      8.89653        -0.165518     -0.481023     -0.432159
O       5.76072      1.89131      0.49565        -0.434295     -0.247807     -0.000729
O       5.81568      1.87660     13.30056        -0.209508     -0.053529     -1.233355
O       5.66251     13.37577      0.53654         0.214596     -0.403218     -0.549104
O       5.69267     13.16308     13.16338        -0.276561      0.263398      1.437303
O       5.75885      1.94852      4.53614        -0.111964     -0.424130      0.557462
O       5.53459     13.32260      4.64206         0.265557     -0.003680     -1.099518
O       5.73543      1.84537      8.89661        -0.003144     -0.006498     -0.767016
O       5.70996     13.41174      8.81567         0.148496     -0.453236     -0.126775
O       5.63409      5.73978      0.42875        -0.218135     -0.199977     -0.641627
O       5.65482      5.59405     13.16315         0.164426      0.173893     -0.866677
O       5.69221      5.71116      4.66270        -0.093722     -0.287015     -1.254733
O       5.74004      5.61001      8.88687        -0.064072      0.247256     -1.167914
O       5.63689      9.53705      0.46730        -0.205006     -0.453782      1.151820
O       5.80962      9.62201     13.22739        -0.409184     -0.270247     -1.538078
O       5.63823      9.48043      4.77318        -0.317721     -0.113927     -1.033045
O       5.63454      9.33029      8.94230         0.201413      0.242482      0.289058
O       9.49578      1.93691      0.33928         0.290028      0.289800     -0.286434
O       9.34824      1.83244     13.27645         0.334363      0.080335     -0.879336
O       9.47369     13.17873      0.52473         0.095711     -0.176860      0.363259
O       9.53001     13.41118     13.02393        -0.421126     -0.498954      0.260600
O       9.54457      1.78354      4.66710         0.023544     -0.200955     -1.579434
O       9.57353     13.32700      4.62721        -0.000137      0.543668      0.606686
O       9.40824      2.01016      8.95548         0.348059     -0.377566     -0.617901
O       9.45071     13.27491      8.88594        -0.021417     -0.206215     -0.273509
O       9.39693      5.61785      0.30773         0.582064      0.389572      1.411084
O       9.48217      5.74118     13.27847        -0.055305      0.277064     -1.751405
O       9.58865      5.95810      4.57548         0.068185     -0.634700     -0.559103
O       9.57630      5.47265      8.91947        -0.075550      0.639405     -0.151792
O       9.40093      9.59943      0.44640         0.059429     -0.043945     -0.626439
O       9.44020      9.43081     13.14058        -0.195813      0.073871      1.528878
O       9.56055      9.31093      4.71866         0.005540      0.266054      0.535726
O       9.38896      9.53789      8.91544         0.051319     -0.147868     -0.833509
O       3.82509      1.87539      2.58668        -0.148147      0.177670      0.326783
O       3.78814      1.94423     15.42516         1.179175      0.233809     -0.020716
O       3.74226     13.42245      2.52170         0.523509     -0.824215      0.733368
O       3.74381     13.14438     15.35670         0.406975      0.674412     -0.166466
O       0.01593      1.91392      2.62065        -0.493781      0.387500     -0.353583
O      15.13976      1.89677     15.37135         0.541494     -0.617620      0.026042
O      15.16708     13.33994      2.62525        -0.256986     -0.073569     -0.248821
O       0.00985     13.35688     15.21354         0.057299      0.063999      0.429709
O       3.85209      1.81925      6.72469        -0.343371      0.332711     -0.073066
O       3.77712     13.38819      6.86873        -0.240411     -0.766206     -0.214103
O      15.17885      1.82834      6.80852        -0.092012      0.670497      0.260740
O      15.16906     13.15763      7.01922        -0.403085      0.543050     -0.046438
O       3.74306      1.92247     10.97830         0.805407     -0.056031      0.436385
O       3.85338     13.22670     11.01203        -0.965197      0.182899      0.501795
O       0.04328      1.92510     10.99042        -1.626580     -0.204654      0.197142
O       0.00131     13.27570     11.16319        -0.389262      0.233728     -0.634081
O       3.75843      5.78085      2.54435        -0.272344     -0.745423      0.353118
O       3.77458      5.49627     15.25244         0.799482      0.135575      0.558017
O       0.00566      5.73974      2.60837        -0.147970      0.202879     -0.202901
O       0.02307      5.72552     15.36977        -0.837723      0.410023     -0.241102
O       3.85555      5.62626      6.64533        -0.841170     -0.117450      0.533653
O      15.18838      5.64761      6.77204         0.105593     -0.083230      0.696452
O       3.81172      5.64877     10.99376        -0.089059      0.349527      0.489701
O       0.05377      5.71452     10.99009        -1.144606     -0.018528     -0.147627
O       3.69878      9.49149      2.76280         0.376651      0.468988     -0.457390
O       3.83808      9.50066     15.44933        -1.662036      0.062962     -0.396755
O      15.09881      9.43125      2.41687         0.436326      0.066665      0.931517
O      15.15754      9.46859     15.29678         0.484779     -0.273173      0.392843
O       3.70781      9.31061      6.79831        -0.372883      0.650105      0.346600
O      15.06176      9.44375      6.91716         0.447996      0.521990      0.047422
O       3.80057      9.45918     11.17130        -0.170470      0.466022      0.107873
O      15.10597      9.43169     10.93942         0.916359      0.079677      0.546398
O       7.67391      1.89167      2.55187        -0.671479      0.006015      0.263403
O       7.60762      1.82240     15.59129        -0.313781     -0.332911     -0.710756
O       7.62646     13.20020      2.73756        -0.895264      0.463338     -0.548313
O       7.60595     13.30353     15.44670        -0.370429     -0.141899     -0.529023
O       7.62387      1.82615      6.72634        -0.334117     -0.182473     -0.106468
O       7.53924     13.36778      6.65309         0.182965     -0.409707      0.372825
O       7.55343      1.92402     11.10024         0.149323     -0.297070     -0.054374
O       7.56211     13.41774     10.99112         0.517490     -0.115500      0.160676
O       7.51419      5.73351      2.51986         1.158953      0.193381      0.039780
O       7.53621      5.69776     15.38022         0.606604      0.463532     -0.148166
O       7.62523      5.72432      6.62046         0.797781     -0.149284      0.428792
O       7.66580      5.78743     11.00924        -0.675949     -0.677802      0.353960
O       7.48191      9.31421      2.76569         0.343183      0.728315     -0.756982
O       7.49718      9.47632     15.53103         0.830911      0.248085     -0.960704
O       7.56179      9.45090      6.69074         0.231947     -0.146485      0.922591
O       7.57085      9.41992     11.09019        -0.956826     -0.417812      0.307814
O      11.46011      1.99800      2.61204        -1.355904     -0.335818     -0.440325
O      11.38956      2.02302     15.37326         0.156393     -0.358485     -0.437640
O      11.40494     13.26484      2.62713        -0.012847      0.031736     -0.111383
O      11.33398     13.23335     15.19576         0.932286     -0.200488      0.142682
O      11.37598      1.81318      6.88156        -0.126126     -0.161061     -0.149067
O      11.37240     13.36605      6.86005         0.765945     -0.066353     -0.047231
O      11.34681      1.95099     11.05663         1.054189     -0.231845      0.228542
O      11.32555     13.26631     10.98668         0.302299     -0.589129      0.176398
O      11.48883      5.68727      2.50578        -1.608433      0.071696     -0.321206
O      11.38656      5.63655     15.35689        -0.103504      0.387808     -0.340062
O      11.40940      5.61787      6.81877        -0.327594      0.525245      0.230086
O      11.39905      5.67177     11.17344         0.888022     -0.166993     -0.537037
O      11.29873      9.49645      2.50778         1.335487     -0.043086      0.293640
O      11.37937      9.51689     15.29760        -1.517727      0.178899      0.488070
O      11.28988      9.50459      6.98323         1.762434      0.305332     -0.288025
O      11.33576      9.41430     11.04229        -0.383233      0.263017     -0.065246
O       1.96136      3.89850      2.60814        -0.226872     -0.170279     -0.122878
O       1.80718      3.80090     15.39369         0.015484     -0.582548      0.590370
O       1.90632      0.08022      2.65073        -0.129968     -0.681336      0.308747
O       2.00998     15.18773     15.40045        -0.544621     -0.856643     -0.431064
O      13.37331      3.81593      2.51157        -0.154010      0.470810      0.183523
O      13.40771      3.79105     15.36786        -0.612165      0.185275     -0.618543
O      13.34973     15.19871      2.47653        -0.637270     -0.030600      0.184397
O      13.20877     15.17190     15.30776         0.046893     -0.026299     -0.132633
O       1.92721      3.75084      6.82108        -0.177566     -0.146367      0.194322
O       1.86146      0.04736      7.00524        -0.118438     -1.602730     -0.435876
O      13.28787      3.77766      6.72180         0.187686     -0.527842      0.693950
O      13.41350      0.02001      6.91990        -0.475756     -1.088280     -0.244916
O       1.91062      3.83330     11.06079        -0.279828     -0.670480      0.228432
O       1.80856      0.02807     11.15262         0.699716     -0.541487     -0.121658
O      13.29222      3.76004     10.94856         0.001632      0.917980      0.212217
O      13.08529      0.00631     11.11282         1.147765      0.378005     -0.221598
O       1.90570      7.65050      2.75912        -0.537884     -0.719134     -0.401835
O       1.95171      7.51975     15.34248         0.001963      1.759022     -0.115359
O      13.30479      7.57533      2.42088        -0.184008      0.462082      0.421504
O      13.18342      7.58704     15.39709         0.380702     -0.239640     -0.304724
O       1.82649      7.49501      6.82271        -0.137188      1.341594      0.566736
O      13.26563      7.64413      6.71403        -0.434410      0.087539      0.593122
O       1.91553      7.61369     11.07316        -0.075699     -0.673156      0.366355
O      13.34675      7.54603     11.15940        -0.608415     -0.397712     -0.753307
O       1.77700     11.40710      2.79480         0.131117      0.336002     -0.583008
O       1.85748     11.38386     15.26925        -0.240593     -0.445317      0.396444
O      13.38790     11.43759      2.51831        -0.670873     -0.278070      0.412304
O      13.34983     11.41700     15.13839        -0.268320     -0.142599      0.833642
O       1.91784     11.36233      6.82602         0.098449      0.243967      0.351633
O      13.22990     11.47631      6.96235        -0.187838     -0.842108     -0.444960
O       1.79315     11.36313     11.05416         0.486987     -0.258761      0.225847
O      13.25359     11.30127     11.05857        -0.125781      0.844284      0.008802
O       5.68482      3.81215      2.56576        -0.077676     -0.033868      0.009866
O       5.80461      3.75990     15.27104        -0.214964     -0.017772      0.595640
O       5.71280     15.16571      2.67240         0.409212      0.300733     -0.114470
O       5.64145     15.13664     15.32702        -0.043568      0.081918      0.153165
O       5.79036      3.73742      6.76422        -0.361144     -0.648543     -0.104566
O       5.67171     15.18500      6.83589         0.342670      0.484356     -0.718016
O       5.67648      3.80052     11.00595         0.171366     -0.550786      0.288301
O       5.58296     15.16388     11.06529         0.216314      0.967108      0.206572
O       5.43621      7.57594      2.53366         0.782273      0.359172     -0.082020
O       5.60861      7.53936     15.19349         0.173442      0.948783      0.448692
O       5.69117      7.49161      6.87453         0.092133      0.691945      0.031422
O       5.62959      7.51748     11.10190         0.262746      1.410569      0.345341
O       5.59821     11.35661      2.56279         0.259325      0.813380      0.220235
O       5.59914     11.36140     15.37481         0.793877      0.881584      0.291162
O       5.69113     11.34274      6.89463        -0.839835      0.841801     -0.481853
O       5.75947     11.41307     10.77220         0.279984     -1.069794      0.619863
O       9.39959      3.85800      2.55342         0.601464     -0.292192     -0.072046
O       9.40869      3.80050     15.14901        -0.116536      0.139439      0.653266
O       9.51737      0.04833      2.27017         0.145553     -1.280120      0.923705
O       9.61532     15.15505     15.22417        -0.430975     -0.054976      0.547961
O       9.49990      3.79188      6.66711         0.327089     -0.550378     -0.323103
O       9.45819     15.10239      6.89988         0.098615      1.993244     -0.053915
O       9.60871      3.73669     11.06531        -0.857464      1.248959      0.763954
O       9.53218      0.00288     10.96968        -0.166859      0.175070      0.269254
O       9.47160      7.60224      2.44269         0.294883     -1.034518     -0.061843
O       9.40205      7.68615     15.40267         0.426299     -1.521164      0.031396
O       9.51029      7.55666      6.85701         0.160461      0.097211      0.403238
O       9.47028      7.53372     11.05624         0.180028      0.423954     -0.147966
O       9.53781     11.28224      2.78539        -0.743444      0.935543     -0.631164
O       9.43835     11.38714     15.27467        -0.097293     -0.196562     -0.163274
O       9.45557     11.44632      6.69703         0.074751     -0.617417      0.559716
O       9.31116     11.34393     11.10521         0.708821      0.278453     -0.344902
