  # total energy = -7881.39623378 
CRSYTAL
PRIMVEC
    15.3600000000000000    0.0000000000000000    0.0000000000000000
     0.0000000000000000   15.3600000000000000    0.0000000000000000
     0.0000000000000000    0.0000000000000000    17.440000000000000
PRESSURE
0.793605 1.11036 -2.61251 -0.072296 -0.328232 0.036884
PRIMCOORD
320 1
Pb       3.91026      3.82132      4.39621         0.034897     -0.408121      0.023895
Pb       3.92051      3.81235      0.01278        -0.661274      0.399856     -0.520537
Pb       3.77468      0.02053      4.33184         0.328473      0.512918     -0.307670
Pb       3.72482     15.30627     17.35127         0.259239      0.252974      0.403682
Pb       0.07146      3.75705      4.36676         0.114712     -0.020539     -0.143040
Pb       0.07801      3.93536      0.00046         0.220429     -0.279294     -0.289521
Pb       0.10535      0.03415      4.34727         0.025282     -0.275568     -0.141259
Pb      15.23514      0.01371     17.37916         0.122418      0.016706     -0.139385
Pb       3.75145      3.75732      8.72965         0.024694      0.197029     -0.294891
Pb       3.82792     15.34978      8.59645         0.072704     -0.007310      0.447539
Pb      15.11795      3.97201      8.63413         0.497486     -0.587195      0.056083
Pb      15.19821     15.31971      8.72652         0.101949     -0.023654     -0.393840
Pb       3.82390      3.64889     13.09687         0.336879      0.132342     -0.093226
Pb       3.74009      0.00767     12.92953         0.359421      0.146440      0.487588
Pb       0.03433      3.78834     13.04549         0.275551     -0.192706     -0.137819
Pb      15.31053     15.25417     13.07543         0.112687      0.206185     -0.244937
Pb       3.84810      7.66663      4.32722         0.576438     -0.187286      0.072498
Pb       3.81774      7.58735     17.42510        -0.255473      0.199335     -0.246835
Pb       0.15256      7.83292      4.33404        -1.106977     -0.667014     -0.254710
Pb      15.24437      7.69494      0.01973         0.339702     -0.055276     -0.108432
Pb       3.80527      7.73358      8.61938         0.059296     -0.519146      0.355934
Pb      15.35500      7.61147      8.63240         0.051574     -0.049788     -0.149288
Pb       3.85833      7.55362     13.00883        -0.170704      0.141718      0.629076
Pb      15.33343      7.63757     13.11632         0.437744      0.046149     -0.480910
Pb       3.81297     11.58690      4.24386         0.093996     -0.321076      0.660120
Pb       3.97358     11.62755     17.40492        -0.542345     -0.583740      0.258211
Pb       0.09139     11.54738      4.35334        -0.442849      0.538229     -0.136529
Pb      15.26976     11.54694     17.32150         0.135949     -0.039265      0.541162
Pb       3.87713     11.51865      8.62710         0.106449     -0.307344     -0.111760
Pb      15.30986     11.45141      8.71848         0.476426      0.313725     -0.256292
Pb       3.92542     11.42313     13.11606        -0.243292      0.092070     -0.178812
Pb       0.19654     11.56277     13.03657        -0.642483     -0.579676      0.064626
Pb       7.71189      3.76943      4.29376        -0.469676     -0.002746      0.576403
Pb       7.68892      3.85946      0.02383         0.075978     -0.022390     -0.482533
Pb       7.69215     15.35809      4.41577        -0.180965      0.121324     -0.457999
Pb       7.53264      0.06786     17.30841         0.135383     -0.456782      0.291931
Pb       7.55775      3.87503      8.76571         0.140307     -0.324031     -0.610519
Pb       7.66052     15.29175      8.77408         0.091785     -0.012154     -0.335193
Pb       7.88542      3.92077     13.03478        -0.810135     -0.373489      0.015867
Pb       7.69395      0.12342     13.00963        -0.478478     -0.167302     -0.119987
Pb       7.74371      7.53306      4.33354        -0.397440      0.051038     -0.237628
Pb       7.58986      7.78354     17.42967         0.013269     -0.355561     -0.168362
Pb       7.73071      7.64764      8.69194        -0.664786     -0.171578     -0.241308
Pb       7.65682      7.73338     13.05714        -0.691707     -0.347858      0.204654
Pb       7.64278     11.49857      4.33654        -0.036449     -0.178331     -0.095003
Pb       7.71914     11.55793     17.35778        -0.336102      0.257599      0.167743
Pb       7.57635     11.60574      8.58338        -0.255583     -0.438590      0.723668
Pb       7.79593     11.51713     12.97879        -0.784748      0.432528     -0.296047
Pb      11.44393      3.77204      4.30687        -0.162862      0.253239      0.016737
Pb      11.72961      3.90909      0.11938        -0.329360     -0.655637     -0.252546
Pb      11.58820     15.26819      4.36350        -0.668977     -0.131849     -0.307359
Pb      11.26442     15.25712      0.03888         0.442696      0.307884     -0.379537
Pb      11.42174      3.87421      8.68048        -0.283263     -0.241349     -0.465577
Pb      11.50400      0.03145      8.76565        -0.179651     -0.055209     -0.737751
Pb      11.59352      3.72056     13.04261        -0.533069     -0.313923     -0.028190
Pb      11.53126     15.31116     13.06114        -0.113567      0.524819      0.055092
Pb      11.55030      7.56791      4.37321        -0.249577     -0.015963     -0.841208
Pb      11.50155      7.69612     17.40297        -0.019586     -0.265749      0.449877
Pb      11.56453      7.72189      8.70188        -0.151189     -0.440098     -0.623899
Pb      11.34781      7.61209     13.13585         0.274604     -0.075071      0.104829
Pb      11.57326     11.43380      4.26690        -0.419628      0.259567     -0.165107
Pb      11.39886     11.41749     17.35978         0.052454      0.395352     -0.011398
Pb      11.58539     11.43450      8.60081        -0.544133      0.510508     -0.053024
Pb      11.55431     11.47619     13.04144         0.378524      0.048151     -0.188053
Ti       1.91168      1.98777      2.24398         0.780936     -0.651547      0.525985
Ti       1.87647      1.89600     15.38085         0.589103      0.145044     -0.146257
Ti       1.83010     13.41435      2.31711         0.176656      0.862122     -1.530687
Ti       1.82890     13.35273     15.43838         0.660170      0.450208     -0.991428
Ti      13.37947      1.85879      2.41022         0.222389      0.218494     -1.527379
Ti      13.44514      1.98476     15.32741        -0.864029     -1.186425      0.430352
Ti      13.40988     13.37412      2.27985         0.145222      0.642446     -1.030755
Ti      13.27435     13.48336     15.45153         0.222757      0.733463     -0.974448
Ti       1.81483      1.84359      6.83144         0.502754      0.587186     -1.560700
Ti       1.91132     13.40474      6.76367        -0.843782     -0.662073     -0.848770
Ti      13.36514      1.87807      6.62710        -0.174944      0.016122      2.045716
Ti      13.45226     13.39682      6.65906        -0.472727      0.895735      0.416670
Ti       1.86844      1.80524     10.93157         0.924593      0.822444      0.608804
Ti       1.84433     13.28813     10.91932         0.965520      1.304014     -0.560059
Ti      13.48579      1.86069     11.05618        -0.753923      0.212755     -0.913388
Ti      13.40190     13.47787     10.99973         0.069544     -1.065459     -1.442011
Ti       1.93380      5.78978      2.40736         0.632352     -1.388028     -2.276195
Ti       1.86719      5.70976     15.35476         1.176469     -0.067614      0.380813
Ti      13.51570      5.70446      2.35548        -0.827751      1.137540      0.041864
Ti      13.43405      5.72593     15.35851         0.388996      0.134533     -1.376052
Ti       1.84659      5.67948      6.60977         1.185804      0.070671      0.895554
Ti      13.31724      5.74850      6.58181         0.203681     -0.080424     -0.800408
Ti       1.93922      5.65528     11.04582        -0.423220     -0.143757     -0.265276
Ti      13.34333      5.65804     11.17825         1.027324      0.597531     -0.886604
Ti       1.80304      9.60892      2.32227         0.613587      0.754315     -2.850027
Ti       1.81494      9.51147     15.50218         0.682395      0.410434     -0.126945
Ti      13.34439      9.58817      2.30721        -0.533523     -0.758014      0.093996
Ti      13.34946      9.55966     15.32553         0.473747      0.328233      0.345272
Ti       1.80965      9.55232      6.69979         1.424423      0.426099      0.210615
Ti      13.35094      9.63143      6.59190         0.682660     -1.084834     -1.194464
Ti       1.90387      9.49811     11.02992        -0.533517     -0.177416     -0.118899
Ti      13.35582      9.44444     11.09459         0.677983      0.703047     -0.178944
Ti       5.73030      1.90679      2.25420        -0.439897     -0.853607      1.160588
Ti       5.67934      1.97831     15.43594        -0.216120     -0.313748     -2.100185
Ti       5.74713     13.37534      2.33347         0.270694      0.967882     -0.564812
Ti       5.70167     13.48836     15.32434         0.358954      0.440939     -0.349118
Ti       5.74631      1.80883      6.73472         0.437040      1.543127     -1.787483
Ti       5.69045     13.42679      6.59802         0.587657     -0.529430     -0.633605
Ti       5.71426      1.86562     10.92001        -0.176669      1.435804     -0.426772
Ti       5.62161     13.41493     11.07202         1.375348     -0.048660     -1.215807
Ti       5.67707      5.70135      2.31104         0.849272      0.780500      0.586924
Ti       5.75881      5.81329     15.43614        -0.791192     -0.881876     -0.312450
Ti       5.70135      5.63292      6.70663         0.647783      0.835886     -1.299983
Ti       5.67583      5.67086     11.01188         0.726048     -0.292105      0.043795
Ti       5.62423      9.59044      2.32211         0.605035     -0.517699     -0.106456
Ti       5.70208      9.64573     15.40090        -0.620607     -0.437585     -0.257924
Ti       5.70343      9.48571      6.60078        -0.210785      0.644044      0.124966
Ti       5.70580      9.58771     11.06421         0.229801     -0.298949     -0.627826
Ti       9.51219      1.84727      2.33310         0.868475     -0.412421      0.380450
Ti       9.61941      1.91353     15.50883         0.544572     -0.228049     -0.231767
Ti       9.52732     13.39278      2.34113         0.344564      0.145701      0.039097
Ti       9.48819     13.41280     15.23155         0.529126      0.696020      0.683057
Ti       9.54280      1.85300      6.69036        -0.261444      0.401573     -0.304307
Ti       9.54865     13.34420      6.69001         1.123088      1.298160     -1.114566
Ti       9.56123      1.91109     10.94686         0.733600     -0.376157     -0.700946
Ti       9.59883     13.43555     11.00823        -1.495082      0.612741     -0.378785
Ti       9.55267      5.68334      2.24569         0.776702      0.726687      0.023463
Ti       9.63203      5.71975     15.52026        -0.766590     -0.064408     -0.161357
Ti       9.55167      5.73465      6.61687        -0.791297     -0.572501     -0.104331
Ti       9.56549      5.73417     11.03913        -0.949051     -0.817163     -1.466107
Ti       9.45182      9.55337      2.32335         0.688657     -0.224825      0.082675
Ti       9.53046      9.54542     15.35329        -0.951299     -0.247470     -0.065120
Ti       9.47270      9.52457      6.66611         0.160734      0.477228     -0.032563
Ti       9.55728      9.56372     11.02779        -0.306080      0.087727     -0.371447
O       1.91703      1.93638      0.47291        -0.336629      0.193963     -0.167078
O       1.99229      2.01574     13.60555        -0.520489     -0.930262      0.190103
O       1.71643     13.47812      0.51083         0.432583      0.010355      0.739643
O       1.81368     13.23944     13.55907        -0.086841      0.544979      1.173280
O      13.43825      1.97206      0.60185         0.253897     -0.356610      1.452824
O      13.42077      1.94939     13.53264         0.048786      0.035870     -0.056470
O      13.31306     13.43615      0.46028         0.360461      0.228693     -0.116784
O      13.32930     13.62455     13.65052         0.361479     -0.762665     -0.240020
O       1.84411      1.80193      4.99525         0.172139      0.254060      1.062704
O       1.79460     13.29480      4.94665         0.309479      0.242534     -0.040834
O      13.38552      1.96666      4.92318        -0.020280     -0.310377     -2.070477
O      13.49390     13.35083      4.91631        -0.370422      0.060413     -0.848487
O       1.90071      1.83739      9.16657        -0.108123      0.025230     -0.707935
O       1.91971     13.32299      9.12368        -0.325018      0.068727      0.213135
O      13.51324      1.88527      9.24206        -0.221147     -0.072896      0.606294
O      13.49405     13.43331      9.16120        -0.231924     -0.015690      0.902622
O       1.87893      5.57013      0.52092        -0.005903      0.624455      1.495226
O       2.04067      5.79454     13.60344        -0.814795     -0.064930     -0.527489
O      13.50553      5.83119      0.54604         0.106689     -0.695558      0.381285
O      13.33374      5.71043     13.53018         0.204983     -0.147565      0.642479
O       2.04614      5.68423      4.86027        -0.559962      0.319489     -0.301902
O      13.36074      5.63499      4.82609        -0.219216      0.503749     -0.185793
O       1.93097      5.66198      9.26825        -0.321544      0.144207      0.553654
O      13.36123      5.82471      9.35766        -0.199542     -0.228124      0.255064
O       1.81730      9.61357      0.48857        -0.086838     -0.118968      1.400246
O       1.70753      9.55916     13.70679         0.235429      0.214799      0.130669
O      13.27892      9.49216      0.53861        -0.043220      0.163016     -0.390918
O      13.26908      9.56219     13.57267         0.308542     -0.010807     -0.121297
O       1.82376      9.58148      4.92198        -0.049692     -0.122201     -0.797287
O      13.26775      9.61032      4.78639         0.503950      0.092455      0.397578
O       1.95793      9.55683      9.27495        -0.526946     -0.139412     -0.364288
O      13.24073      9.38525      9.25485         0.545639      0.474619      0.982394
O       5.64105      1.84655      0.48081         0.321286      0.457281      0.110393
O       5.60433      1.79913     13.59434         0.484526      0.526283      1.262075
O       5.81726     13.29345      0.51992        -0.031970      0.259095      1.049460
O       5.71254     13.54385     13.53793        -0.157098     -0.397471      0.235968
O       5.78761      1.82839      4.89412        -0.294931     -0.075427      0.640913
O       5.71104     13.32508      4.79395         0.010207      0.533165      0.863128
O       5.68403      1.91332      9.09334         0.248328     -0.060986      0.756773
O       5.77562     13.34749      9.21933        -0.557028      0.251691      1.251912
O       5.63322      5.84369      0.54731         0.083361     -0.476418     -0.205545
O       5.62477      5.69343     13.68575         0.743779      0.474351     -0.465273
O       5.71125      5.75503      4.87666        -0.351262      0.083446      0.824544
O       5.80751      5.58636      9.24525        -0.081618      0.189086     -0.356239
O       5.66218      9.59606      0.50913         0.314153      0.091280      0.860065
O       5.61051      9.58890     13.59705         0.479813      0.256130      0.578491
O       5.67855      9.51661      4.81469        -0.131297     -0.248954      0.834731
O       5.73017      9.69697      9.30983        -0.193118     -0.078600      0.433324
O       9.47764      1.76094      0.59707         0.142246      0.178738     -1.511467
O       9.70596      1.88395     13.73574        -0.316565      0.277205     -0.006892
O       9.58222     13.37806      0.55398        -0.107596      0.036986     -0.033879
O       9.56871     13.58177     13.47278        -0.208982     -0.469523     -0.488948
O       9.60588      1.84701      4.88540         0.055183     -0.128065      0.362519
O       9.68204     13.45785      4.85707        -0.289954     -0.399055      1.230641
O       9.64367      1.91142      9.15762        -0.213497      0.260386      0.201772
O       9.33427     13.52199      9.24985         1.022674     -0.480772      0.422252
O       9.68181      5.68301      0.44512        -0.531650      0.004631      0.653529
O       9.52178      5.75700     13.71434         0.074732     -0.521509      0.188164
O       9.68645      5.71918      4.84973        -0.280383      0.381743     -0.653080
O       9.44803      5.59924      9.16651         0.530470      0.522706      2.007729
O       9.50739      9.51906      0.54206        -0.020307      0.144804     -0.482529
O       9.54233      9.44780     13.59419        -0.156268      0.422366     -0.404835
O       9.47255      9.48967      4.90724         0.384070      0.187487      0.272766
O       9.53761      9.47774      9.24422         0.427426      0.100855      0.619204
O       3.83054      1.92533      2.76226         0.638250     -0.018589     -0.186934
O       3.80977      2.07099     15.73040        -0.652459     -1.035943      0.579245
O       3.79110     13.22314      2.63314         0.225131      0.706734     -0.125496
O       3.87575     13.46250     15.87888        -1.105364     -0.727875     -0.515124
O       0.09672      1.92110      2.80599        -1.155006      0.025792     -0.233373
O      15.29097      1.84180     15.71188         0.770377     -0.336640      0.182911
O      15.32946     13.41490      2.73209         0.388271      0.368720      0.177823
O      15.32201     13.43558     15.79898        -0.670066      0.369694     -0.311054
O       3.84355      1.94480      7.12533        -1.085678     -0.149856     -0.072648
O       3.82210     13.43028      6.98564        -0.159094     -0.129490      0.208406
O      15.25887      1.91625      7.06049         0.237527     -0.461063      0.163288
O      15.32525     13.52290      7.03598         0.016486     -0.442744      0.540454
O       3.83149      1.82200     11.40025        -0.445228      0.253470     -0.312876
O       3.73420     13.43621     11.36861         0.524272     -0.311224      0.065805
O       0.05302      1.87717     11.41630        -0.909123      0.173259      0.337545
O      15.33868     13.34285     11.21062        -0.342871      0.638609      0.874634
O       3.87528      5.60942      2.77556        -1.196311      0.703872      0.001439
O       3.76976      5.76548     15.76591        -0.184056      0.474795      0.635850
O       0.10640      5.81855      2.75982        -1.242592     -0.446341      0.145763
O      15.32833      5.81186     15.67232         0.118377     -0.503380      0.336489
O       3.84674      5.78097      7.06523        -0.930185     -0.415768      0.109754
O      15.32757      5.74406      6.90935        -0.538204      0.159443      0.533710
O       3.84719      5.81748     11.50708        -0.674961     -0.404509     -0.739541
O      15.26634      5.52001     11.38645         0.550881      0.905036      0.300199
O       3.75392      9.71771      2.70457        -0.084342     -0.086403     -0.030521
O       3.81358      9.59751     15.80434        -0.397478      0.144084     -0.158783
O      15.24671      9.51935      2.60029         1.002529     -0.150297      0.708355
O      15.25870      9.72090     15.82632        -0.414423     -0.692687     -0.280240
O       3.78166      9.55941      7.13697         0.273206      0.110866     -0.500100
O      15.33671      9.52365      7.02200        -1.041730     -0.014205      0.475254
O       3.73679      9.59416     11.50516         0.884554     -0.104492     -0.083395
O      15.33066      9.48511     11.40344        -1.335779      0.441681     -0.036792
O       7.70448      1.89830      2.71767        -1.886129     -0.243628      0.090944
O       7.57758      1.90633     15.75796         0.708625      0.269670      0.300356
O       7.67807     13.33583      2.79205        -0.331909      0.704763     -0.202776
O       7.67532     13.51411     15.75054        -0.596518     -0.406835     -0.230514
O       7.64583      1.79078      6.96979         0.112446      0.313838      0.567401
O       7.65399     13.39342      7.10156        -0.621847      0.370567     -0.676185
O       7.70561      2.10211     11.28013        -1.121074     -0.313422      0.429828
O       7.57583     13.35609     11.35974         0.598536      0.126430      0.647269
O       7.59610      5.69901      2.68842         0.665947      0.301191     -0.206732
O       7.63364      5.64378     15.96146         0.284406      0.298141     -0.432715
O       7.63442      5.86825      6.87488        -0.005878     -0.016156      0.812051
O       7.63053      5.68301     11.44051         0.685541     -0.759163      0.224767
O       7.63390      9.49803      2.80341        -0.873026     -0.085893     -0.436591
O       7.61172      9.54878     15.76556        -0.115618      0.268988      0.123453
O       7.57941      9.67458      7.02527         0.363529     -0.640649     -0.035689
O       7.68343      9.71343     11.46925        -0.484011     -0.570644      0.032802
O      11.45142      1.91635      2.68812         1.409084     -0.246025      0.176103
O      11.58735      1.94048     16.00888        -0.974536      0.592992     -0.553534
O      11.56186     13.40868      2.58687        -0.603084     -0.039355      0.818868
O      11.39430     13.48508     15.64389         0.044905     -0.527143      0.582350
O      11.46044      1.85099      7.17363         0.171690      0.707166     -0.290886
O      11.51291     13.32822      7.07557        -0.615919      0.042573      0.258574
O      11.54371      1.74885     11.35727        -0.163171      0.304875      0.124852
O      11.48928     13.69252     11.23498        -0.690093     -0.545551      0.223104
O      11.45190      5.78405      2.59811         0.650681     -0.756021      0.255332
O      11.58077      5.77402     15.82845        -0.819979     -0.298607     -0.034751
O      11.41937      5.77714      7.01758         1.154798     -0.081964      0.486483
O      11.42387      5.67004     11.55200        -0.210648      0.657713     -0.562226
O      11.40185      9.60699      2.64764         0.737869      0.133332      0.378261
O      11.35042      9.49000     15.69167         1.778203     -0.013430      0.518421
O      11.53487      9.62733      6.97501        -1.039023     -0.071481      0.549098
O      11.42759      9.55541     11.53065         0.352087     -0.484394     -0.369626
O       1.98252      3.84421      2.75327        -0.537608     -0.167039      0.088349
O       1.88993      3.77449     15.61183        -0.826021      0.938853      0.823631
O       2.09179      0.05170      2.67231        -1.012099     -1.035456      0.175171
O       2.00445     15.31383     15.82370        -0.801889      0.221267     -0.556121
O      13.42025      3.82963      2.69644         0.325886     -0.267934      0.084951
O      13.62177      3.86293     15.73277        -0.970518     -0.001366      0.342713
O      13.58212     15.30829      2.80844        -0.885353      0.845929     -0.371755
O      13.23580      0.07298     15.58087         0.991770     -1.005094      0.958552
O       1.81506      3.79308      7.09987         0.248353      0.423937     -0.102155
O       1.94300     15.26486      7.04100        -0.181034      1.111209      0.356539
O      13.37810      3.85455      6.88539        -0.162607     -0.147002      1.184422
O      13.25647     15.33796      7.01787         0.686586      0.010590      0.087424
O       1.98974      3.73633     11.39959        -0.141800      0.842501      0.027254
O       1.95953      0.00604     11.37681        -0.969947     -1.450602     -0.029947
O      13.38405      3.73710     11.40197        -0.367207      0.616086      0.203029
O      13.50348     15.35369     11.44035         0.510529     -0.519635      0.171479
O       1.98102      7.68848      2.60303         0.037061      0.232436      0.688896
O       1.72898      7.65042     15.83379         0.577162      0.524075     -0.095090
O      13.43224      7.61198      2.68175        -0.223159      0.357974      0.458092
O      13.49104      7.61096     15.78376        -0.500102      1.412287     -0.181479
O       1.88605      7.62494      7.12426        -0.173488     -0.124254     -0.323775
O      13.38184      7.66336      6.85819        -0.031636      0.110580      0.732537
O       1.82667      7.60755     11.43004        -0.039516     -0.312704      0.108808
O      13.33342      7.64358     11.60044         0.057905     -0.172866     -0.615533
O       1.75267     11.53846      2.58110         0.104549     -0.919471      0.744895
O       1.87953     11.54730     15.80644         0.039776     -0.369351      0.112886
O      13.50427     11.52284      2.51090        -0.458612     -0.918644      0.716308
O      13.31456     11.47938     15.66096        -0.458593      0.129290      0.309948
O       1.84053     11.44981      7.06190        -0.169047      0.175084      0.401232
O      13.46209     11.49840      6.87790         0.186720     -0.647264      1.185773
O       1.81289     11.48028     11.25661         0.128130     -0.726148      0.684223
O      13.25125     11.61647     11.40015         0.096305     -0.964251      0.039285
O       5.71318      3.80539      2.74979         0.449144     -0.650137     -0.566358
O       5.56633      3.90147     15.76310         1.120961     -0.735541      0.483666
O       5.80416     15.30604      2.67873        -0.422784      0.169996     -0.072136
O       5.60217     15.33821     15.79116         0.620719      0.553953      0.178218
O       5.82721      3.79396      6.96013        -0.219922      0.333042      0.519966
O       5.65810     15.35354      7.02220         0.196461     -1.699599      0.185999
O       5.57740      3.75653     11.28279         0.364769      0.724339      0.419408
O       5.70142      0.08168     11.33567         0.589591     -2.096134      0.178957
O       5.53324      7.66724      2.69925         0.516893      0.173741     -0.207087
O       5.67849      7.68587     15.84295         0.423367      0.523111     -0.096833
O       5.71032      7.68774      7.28129         0.314668      0.216902     -0.970316
O       5.81266      7.60949     11.30540        -0.155755      1.121361      0.458444
O       5.83708     11.50156      2.76076        -0.378554     -0.839011     -0.151144
O       5.75847     11.59295     15.82251         0.094616     -0.948816     -0.595283
O       5.66351     11.55541      6.94760         0.125908     -0.806937      0.332678
O       5.68947     11.50304     11.49338        -0.341207      0.059850      0.222097
O       9.48784      3.75170      2.72019         0.649048      1.225684     -0.307626
O       9.58796      3.77821     15.92273        -0.086827      0.480707     -0.115115
O       9.60023     15.31021      2.74491         0.016400     -0.356890      0.062253
O       9.53253     15.33100     15.74830         0.224985      0.167137      0.397603
O       9.46980      3.86907      6.85303         0.424515     -0.863005      0.913768
O       9.47155     15.33171      7.07880         0.733742     -0.801124      0.107498
O       9.71378      3.74423     11.40940        -0.263350      1.677283      0.441657
O       9.36473      0.08064     11.31797         0.361466     -1.367160      0.263068
O       9.57383      7.60347      2.70563        -0.343498     -0.018847     -0.064823
O       9.42431      7.60615     15.71578         0.509171      0.285579      0.518346
O       9.55032      7.65368      7.09310         0.099917      0.998404     -0.015002
O       9.35508      7.59723     11.55640         1.471753      0.238498     -1.095368
O       9.43334     11.48618      2.61665         0.726213     -0.409276      0.444183
O       9.54199     11.48803     15.67876        -0.036902      0.204919     -0.048621
O       9.54263     11.48465      7.09727         0.290882     -0.374280     -0.009871
O       9.64577     11.46588     11.41835         0.178860      1.003244     -0.040655
