  # total energy = -7862.93256849 
CRSYTAL
PRIMVEC
    15.010000000000000    0.0000000000000000    0.0000000000000000
     0.0000000000000000   15.010000000000000    0.0000000000000000
     0.0000000000000000    0.0000000000000000    16.400000000000000
PRESSURE
18.6113 18.8665 7.01862 0.213172 0.159058 -0.062982
PRIMCOORD
320 1
Pb       4.02551      3.67399      4.37190        -1.394744      0.307923     -0.784201
Pb       3.83758      3.79101      0.14294        -0.436544     -0.122779     -0.085247
Pb       3.68666      0.15714      4.15696        -0.333919     -0.366677     -0.262259
Pb       3.80625      0.02660     16.35463        -0.595404     -0.346453      0.084766
Pb      14.92748      3.62711      4.07986         0.493470      0.212417     -0.237875
Pb       0.02749      3.65813     16.35491         0.132060      0.629399     -0.011271
Pb      14.96370      0.06308      4.23449         0.643038     -0.335630     -0.421284
Pb      14.88693      0.00494      0.06055         0.065572     -0.462768     -0.597212
Pb       3.82361      3.62742      8.33683        -0.482516      0.420026     -1.116585
Pb       3.86331     14.89127      8.31293        -0.923725     -0.294009     -0.510683
Pb       0.06610      3.76360      8.32375         0.100549     -0.189789     -0.827503
Pb      14.95469     14.88075      8.17194         0.302908      0.189365     -0.093457
Pb       3.83707      3.73319     12.21601        -0.762530     -0.047107      0.439408
Pb       3.74224      0.01803     12.49881         0.161056     -0.336275     -0.621865
Pb       0.03999      3.67375     12.33930         0.054801      0.340370     -0.290710
Pb       0.03318      0.01887     12.29766        -0.452674     -0.189315     -0.033700
Pb       3.51515      7.57454      4.08940         1.128714     -0.326617     -0.109899
Pb       3.77837      7.41262      0.26465        -0.607813     -0.277347     -0.689529
Pb      14.91672      7.49257      4.12584        -0.224271     -0.147278     -0.433498
Pb      14.95323      7.53631      0.10221         0.189177     -0.079204     -0.861604
Pb       3.69114      7.58028      8.04246         0.220135     -0.485394      0.074608
Pb       0.00580      7.53466      8.22849        -0.557157     -0.224930     -0.228307
Pb       3.77548      7.59329     12.30050        -0.562010     -0.353734     -0.011424
Pb       0.06540      7.31246     12.32904        -0.098608      0.669705      0.095320
Pb       3.54939     11.22812      4.22118         0.649259      0.284410     -0.672788
Pb       3.73354     10.99012     16.31679        -0.582658      1.193681      0.014435
Pb      14.96933     11.21081      4.11913        -0.041549      0.478942     -0.473244
Pb      14.92586     11.39117      0.08398         0.013120     -0.518947     -0.587552
Pb       3.67114     11.05964      8.25437         0.319203      1.318561      0.297103
Pb      14.99088     11.13331      8.16464        -0.072950      0.484173      0.756897
Pb       3.76473     11.30274     12.37004        -0.358971      0.051860     -0.308395
Pb       0.02024     11.29996     12.33486        -0.186389     -0.702179     -0.387531
Pb       7.50513      3.70023      4.17792         0.426672     -0.035228     -0.325154
Pb       7.54525      3.86454     16.36783        -0.287369     -0.595139      0.069082
Pb       7.45626     14.86327      4.27452         0.710460      0.463860     -1.174926
Pb       7.30806     15.00259     16.39133         0.578384      0.035808     -0.076000
Pb       7.51853      3.64673      8.24562         0.283890      0.199852     -0.095654
Pb       7.51222     15.00415      8.29512        -0.047056     -0.198125      0.070501
Pb       7.44918      3.74119     12.25667         0.497324     -0.827448     -0.009033
Pb       7.60384     14.81996     12.44121        -0.400871      0.535256     -0.491131
Pb       7.25781      7.52997      4.01364         0.288092     -0.162482      0.017139
Pb       7.48271      7.46031      0.07227         0.046284      0.089936     -0.472497
Pb       7.49668      7.49012      8.39700        -0.493700      0.371314     -0.538689
Pb       7.58730      7.41290     12.52772         0.105966      0.701158     -0.601829
Pb       7.46003     11.35853      4.10655        -0.223962     -0.048946     -0.635373
Pb       7.53687     11.27492      0.10716        -0.744209     -0.029426     -0.211715
Pb       7.44397     11.19818      8.26311        -0.797102     -0.020240     -0.020714
Pb       7.55002     11.16113     12.36364        -0.121977      0.094591     -0.401843
Pb      11.14492      3.76105      4.15823         0.067948     -0.272162     -0.338804
Pb      11.32828      3.83858     16.38542        -0.344090     -0.481922     -0.283439
Pb      11.45763     14.98326      4.26685        -1.326394      0.301783     -0.820474
Pb      11.03755     14.90296      0.14399         0.894526      0.341600     -1.021445
Pb      11.46530      3.77964      8.12202        -0.791171     -0.180684      0.064420
Pb      11.33825     14.86493      8.25953        -0.268707      0.402995     -0.399605
Pb      11.34915      3.71702     12.19346        -0.430385     -0.023562      0.214387
Pb      11.30429      0.14968     12.29523        -0.129323     -0.618245      0.157101
Pb      11.20689      7.45737      4.21760         0.238286     -0.072945     -0.810940
Pb      11.09472      7.45368      0.15982         0.492246      0.208533     -0.975347
Pb      11.04776      7.43983      8.19093         1.282105     -0.012146      0.020725
Pb      11.31287      7.29911     12.29883        -0.319894      1.040203     -0.033347
Pb      11.31361     11.29505      4.18325        -0.561189     -0.240399     -0.710084
Pb      11.20396     11.12673      0.08611         0.611921      0.269405     -0.646181
Pb      11.04396     11.17340      8.32228         0.682048      0.089480     -0.437969
Pb      11.17808     11.32918     12.25420         0.141678     -0.770594      0.221427
Ti       1.81938      1.85862      1.98817         1.118144      1.099413      0.493780
Ti       1.82619      1.86346     14.30636         0.054259      0.447147      0.996082
Ti       1.81340     13.20507      2.11427         0.329686     -0.350177      0.082386
Ti       1.78309     13.12556     14.40779         0.613697     -0.706857     -0.295722
Ti      13.10621      1.84796      2.00320        -0.181886      0.727118      1.008622
Ti      13.09109      1.85200     14.43466        -0.365544     -0.046131      0.511949
Ti      13.07153     13.13507      2.12394         0.418713      0.153566     -1.104699
Ti      13.09281     13.09977     14.22544        -0.661307      0.547763      0.734761
Ti       1.86209      1.87959      6.19019        -0.895713     -0.090153      0.054992
Ti       1.86293     13.16615      6.20260         0.374330     -0.661089      0.099031
Ti      13.13990      1.82210      6.19165         0.017396      0.823993      0.645939
Ti      13.07127     13.04243      6.20075         0.722605      1.018298      0.422505
Ti       1.88426      1.81309     10.23480        -0.401874      1.007450     -0.873981
Ti       1.80137     13.17673     10.30170         0.567586     -1.354854     -0.554862
Ti      13.19808      1.83270     10.17401        -1.360355      0.078405     -0.450302
Ti      13.10174     13.07637     10.32035         0.703586     -0.167825     -0.623313
Ti       1.78133      5.59878      2.11928         0.676759     -0.506627     -0.906981
Ti       1.88097      5.57256     14.44161         0.775130      1.516935      0.108535
Ti      13.09714      5.59412      2.01763         0.306219      0.561318      0.600171
Ti      13.16741      5.63638     14.37250        -0.226574     -0.067153      0.029819
Ti       1.82785      5.58247      6.06050         0.616972     -0.401775      1.529804
Ti      13.14722      5.63656      6.12019        -0.305256     -0.043425      0.994329
Ti       1.87271      5.62680     10.24117         0.506967     -0.276495      0.338512
Ti      13.16237      5.59603     10.22071        -0.858726      1.252711     -0.743954
Ti       1.75051      9.39264      2.02074         1.065454      0.534817     -0.458346
Ti       1.74883      9.32988     14.29994         0.060257      0.865427      0.013258
Ti      13.07911      9.35121      2.02525        -0.270426      0.250426      1.075236
Ti      13.10048      9.36461     14.32790         0.366814      0.280290      0.346359
Ti       1.74178      9.39916      6.16231         0.394379     -0.498967      0.275943
Ti      13.01643      9.40049      6.16969        -0.007199     -0.597770      0.819584
Ti       1.81899      9.37210     10.35888        -0.531784      0.765180     -0.080289
Ti      13.09109      9.34410     10.27600         0.520647      0.652743      0.076061
Ti       5.65409      1.85135      2.15278        -0.265922      0.409316     -0.344709
Ti       5.62264      1.93374     14.44365         0.326023      0.280107     -1.227732
Ti       5.49501     13.20168      2.07985         0.809568     -1.986391     -0.323369
Ti       5.55249     13.09228     14.33664         0.175347      0.154382     -0.338816
Ti       5.69518      1.79418      6.24906        -1.996446      1.614188      0.711974
Ti       5.56020     13.19640      6.11549        -0.420643     -1.300466      0.615290
Ti       5.58125      1.82565     10.28014         1.892313     -1.368552      0.005591
Ti       5.54917     13.13188     10.26686         0.320498     -1.054064     -0.163384
Ti       5.58575      5.59258      2.12723        -0.628111      0.152944      0.937152
Ti       5.55640      5.64250     14.22114         0.160604     -0.519341      1.365053
Ti       5.65039      5.65950      6.17844        -0.908965     -0.459228      0.027494
Ti       5.61878      5.60724     10.26671        -1.007088      0.642000     -0.791295
Ti       5.58413      9.46974      2.02403        -0.523686     -0.280369      0.021927
Ti       5.60048      9.32414     14.40173         0.276511      0.662631     -0.006546
Ti       5.56684      9.42091      6.11008         1.269133     -0.010910     -0.296236
Ti       5.56573      9.37635     10.37336         0.932719      0.205453     -0.635520
Ti       9.37591      1.86263      2.01056         0.144780      0.326299     -0.241838
Ti       9.40225      1.86936     14.37086        -0.947444     -0.114520      0.053145
Ti       9.38201     13.18946      2.04878        -1.666509     -0.737396      1.418733
Ti       9.38364     13.09936     14.44630         0.218102      0.546504     -0.615687
Ti       9.35394      1.84030      6.20526         1.027843      0.324422     -0.701055
Ti       9.33669     13.10639      6.24873        -0.016989      0.645843      0.054932
Ti       9.42490      1.82319     10.25390        -1.312260      1.579180     -0.805976
Ti       9.34181     13.19013     10.23066         0.194126     -1.172400      0.841472
Ti       9.35412      5.62307      2.11082        -0.269455     -0.218456      1.025784
Ti       9.39943      5.58788     14.35883         0.263280      0.956209      0.094589
Ti       9.30557      5.64621      6.21185         0.007218     -1.200368     -0.259455
Ti       9.32521      5.58226     10.27538         0.050375     -0.539930      0.063031
Ti       9.34339      9.39345      2.12162         0.510539      0.145042     -0.143552
Ti       9.35446      9.40712     14.41223         0.939488     -1.617668     -0.886543
Ti       9.29833      9.37208      6.05303        -0.615240      0.281044      1.313177
Ti       9.38014      9.35173     10.27432        -0.229901      0.361361      1.833216
O       1.84807      1.85234      0.15418        -0.146808     -0.272407      0.237332
O       1.80650      1.89947     12.48751        -0.220370      0.261760     -0.597090
O       1.78992     13.19538      0.32386        -0.218779      0.384289     -1.741162
O       1.97911     13.12221     12.54539        -0.604806      0.260771     -0.020698
O      13.12475      2.03543      0.22415        -0.043880     -0.999065     -0.775873
O      13.15183      1.93024     12.63851        -0.134731     -0.051441     -1.972665
O      13.01827     13.20525      0.25882         0.316455     -0.142615      0.555734
O      13.08313     13.28229     12.39421         0.053759     -0.485713      0.839181
O       1.80758      1.88605      4.34053        -0.258319     -0.086948     -0.014573
O       2.01182     13.11506      4.38210        -0.430564     -0.157732     -0.809431
O      13.31692      1.77950      4.35145        -1.068319      0.416223     -0.077827
O      13.05766     13.14371      4.35219         0.150911      0.025879     -0.197853
O       1.90209      1.89752      8.36900         0.075176     -0.084699      0.778929
O       1.71957     13.13695      8.48761         0.245658      0.171891     -0.758987
O      13.26789      1.86732      8.33478        -1.055812     -0.107191      0.711477
O      13.14334     13.24290      8.39455         0.044699     -0.676929      0.504771
O       1.86541      5.71573      0.21872        -0.163149      0.161262      0.253433
O       1.87682      5.57420     12.61095        -0.050058     -0.000393     -1.139243
O      13.06557      5.67439      0.21295         0.240611     -0.162137     -0.689848
O      13.05309      5.68593     12.46388         0.454505     -0.667673      0.388918
O       1.85630      5.63232      4.31004        -0.092637      0.004547     -1.529566
O      13.09135      5.64876      4.31710        -0.194616      0.095851     -0.306381
O       1.83607      5.66366      8.43490         0.172764      0.216083     -0.428105
O      13.13791      5.66223      8.33998         0.010719      0.129786      1.065899
O       1.70287      9.32307      0.20140         0.819940      0.105389     -0.040601
O       1.72785      9.40000     12.41554         0.412013     -0.015416      0.826509
O      13.07863      9.39130      0.24903        -0.294438      0.116345     -0.716059
O      13.20669      9.56879     12.57438        -0.122773     -1.110930     -0.971460
O       1.81723      9.44682      4.31154        -0.040971      0.083166     -0.292054
O      13.11053      9.48629      4.37242         0.069297     -0.281813     -0.849642
O       1.78411      9.41631      8.40205         0.451638     -0.772407     -0.082974
O      13.19961      9.44140      8.42852        -0.601122     -0.142577      0.017964
O       5.64974      1.95651      0.30945        -0.391627     -0.574032     -1.261590
O       5.70846      2.05430     12.56617        -0.448135     -0.624393     -0.134275
O       5.63370     13.20037      0.22663        -0.231238      0.114143     -0.755023
O       5.59036     13.04689     12.40056        -0.118883      0.220249      1.526097
O       5.63274      1.82538      4.43512         0.292068      0.016495     -1.853794
O       5.46043     13.29035      4.27361         0.332472     -0.667521      0.493627
O       5.56541      1.83349      8.32693        -0.291109      0.239589      1.497826
O       5.62474     13.10691      8.38624         0.356025      0.436941      0.456190
O       5.56096      5.56957      0.32551         0.095485      0.532477     -1.418071
O       5.53945      5.60475     12.41710         0.368581     -0.114877     -0.048415
O       5.58795      5.60947      4.30009         0.340147      0.013057     -0.115549
O       5.78519      5.63467      8.40684        -1.081630      0.041067     -0.172943
O       5.58995      9.46840      0.10903         0.181030     -0.738696      0.727722
O       5.70395      9.43652     12.53508        -0.106944     -0.164245     -0.577867
O       5.58918      9.57547      4.28599         0.153798     -0.699450     -0.332105
O       5.59323      9.42237      8.48939        -0.324442     -0.610782     -0.696425
O       9.37464      1.77382      0.10651         0.114231      0.334706      1.569916
O       9.44031      1.87947     12.51126        -0.574829      0.111884     -0.085862
O       9.22886     13.12797      0.21178         0.853859      0.375163     -0.095225
O       9.50456     13.20892     12.61251        -0.899094     -0.163878     -0.790072
O       9.23312      1.87462      4.32013         0.418841      0.236726      0.632034
O       9.27826     13.13955      4.46096         0.267975     -0.095041     -1.249537
O       9.34599      1.90093      8.37008         0.073029     -0.158930      0.374678
O       9.28107     13.13382      8.41681         0.367296      0.182843     -0.393498
O       9.39203      5.60507      0.33189         0.020346      0.516751     -2.074858
O       9.41412      5.67021     12.52940        -0.287658     -0.087771     -0.117661
O       9.31676      5.61512      4.38043         0.219454      0.119278     -0.998128
O       9.43021      5.51091      8.44337        -0.764809      0.429391     -0.380165
O       9.34454      9.44702      0.23739         0.360385     -0.226067     -0.130631
O       9.42377      9.46998     12.55197        -0.834302     -0.652447     -0.291622
O       9.36340      9.51410      4.28148        -0.403862     -0.527465     -0.278099
O       9.45262      9.38472      8.49133        -0.142773     -0.027826     -1.348080
O       3.80036      2.03210      2.35426        -0.995511     -0.500687     -0.076858
O       3.65402      1.78743     14.48853         1.271603     -0.280721      0.415072
O       3.69896     13.09962      2.20397        -0.607095     -0.718164      0.460748
O       3.66885     13.27798     14.57467         0.621287      0.381735      0.394051
O      14.96412      1.80026      2.33403         0.564787     -0.319126     -0.365284
O      14.96774      2.02521     14.60857         0.705893      0.172887      0.192638
O      14.95623     13.23869      2.32618        -0.420664      0.521640      0.402842
O      14.92459     12.94265     14.59986         0.845021      0.692046      0.164780
O       3.63889      2.02502      6.31708         2.093974      0.612879      0.372076
O       3.76705     12.97421      6.52584        -0.839462     -0.418163      0.028036
O      14.93541      1.63126      6.39190         1.425003     -0.296268      0.112840
O      15.00597     13.42504      6.27249        -0.822714     -0.798981      0.257117
O       3.74716      1.90047     10.52973        -0.186585      0.734891      0.020400
O       3.69697     13.03600     10.40653         0.235959     -0.095153      0.215077
O      14.96832      1.79655     10.37032         1.358507     -0.291800      0.949772
O      14.97581     13.26104     10.58880         0.124260      0.393823      0.170783
O       3.64245      5.53589      2.17557         1.316078      0.181832      0.542179
O       3.79581      5.86961     14.59138        -0.571711      0.052229      0.320108
O      14.96548      5.79618      2.33857        -0.148206      0.261348      0.179374
O       0.05007      5.56998     14.52057        -1.581032     -0.508397      0.322684
O       3.71814      5.35393      6.30632         0.206112      0.255168      0.825881
O      14.98567      5.89014      6.31897         0.244185      0.349560      0.253697
O       3.71803      5.47584     10.52905         0.339559     -0.300703     -0.316561
O      14.98667      5.72619     10.45842         0.432307      0.155048      0.267991
O       3.68212      9.50757      2.21270         0.435972      0.311745      0.114938
O       3.73519      9.30394     14.48640        -0.293814     -0.102582      0.303482
O      14.95522      9.15452      2.24854        -0.513603      0.459983      0.708531
O      14.95063      9.57863     14.69067         0.416333     -0.048998     -0.008123
O       3.76405      9.64506      6.39309        -1.612201     -0.611156      0.002610
O      14.91033      9.28581      6.36691         1.078700     -0.464699      0.189568
O       3.70526      9.57025     10.55945         0.231262     -0.562049      0.104637
O      15.00549      9.32631     10.50040        -0.414782     -0.480264     -0.176836
O       7.57009      1.78060      2.20578        -1.103321     -0.042908      0.438780
O       7.45850      2.15321     14.62453         0.823627     -0.495153     -0.031600
O       7.40438     13.18117      2.35738         2.162250      0.240509      0.322594
O       7.42907     13.10090     14.56089         0.618263     -0.131237     -0.203568
O       7.43828      1.62554      6.42477         2.139316     -0.286458      0.253204
O       7.43897     13.40772      6.30830        -0.027371      0.114350      0.421745
O       7.45345      1.74520     10.36144         0.390324     -0.047901      0.326700
O       7.53358     13.25848     10.45457        -0.529242     -0.127486      0.438084
O       7.43331      5.78931      2.19296         0.887421     -0.101687      0.646572
O       7.47928      5.61168     14.53972         0.362024     -0.638024      0.185415
O       7.46367      5.87948      6.35689         0.340952      0.141250      0.307045
O       7.39259      5.75076     10.48473         2.239390     -0.224412      0.713526
O       7.49210      9.35181      2.20375        -0.291181     -0.355033      0.458286
O       7.48951      9.48255     14.54388        -0.120547      0.360420      0.282609
O       7.45743      9.10211      6.40858         0.184849      0.470908      0.130134
O       7.52924      9.27196     10.32900        -0.775515      0.279445      0.851803
O      11.31798      2.05779      2.42162        -1.306430     -0.093290     -0.115069
O      11.18002      1.88106     14.62013         1.643926     -0.665124      0.170326
O      11.20815     13.15974      2.45532        -0.471926     -0.459244     -0.280709
O      11.25323     13.24666     14.57057        -0.521770      0.224938      0.725412
O      11.27778      2.15511      6.33020        -0.546113     -0.199098     -0.113596
O      11.20093     12.92401      6.41408         0.494282      0.120500      0.328750
O      11.24274      2.05756     10.45162         1.311654     -0.345402      0.172755
O      11.27130     13.01232     10.43830        -0.683743      0.608077     -0.174525
O      11.25268      5.57014      2.33561        -0.824080     -0.028440      0.365860
O      11.30786      5.84710     14.62960        -0.984770     -0.362714      0.025169
O      11.20208      5.47355      6.44106         0.606460     -0.029470     -0.321466
O      11.14716      5.53923     10.51506         1.960632     -0.104795      0.021148
O      11.26729      9.51402      2.42523        -0.816839     -0.386387     -0.307251
O      11.25727      9.28553     14.53663        -0.240926     -0.188302      0.903855
O      11.15662      9.56510      6.37947         0.292533      0.161644      0.140857
O      11.25167      9.55833     10.56014         0.409406     -0.506138     -0.238701
O       1.72814      3.71455      2.20122        -0.358535      0.885569      0.233016
O       2.00979      3.79833     14.65674        -0.107931     -1.594633      0.117821
O       2.02564      0.08042      2.34469        -0.346572     -0.961449      0.145303
O       1.65361      0.00078     14.46932        -0.153133      0.068903      0.453582
O      13.24859      3.79254      2.22840         0.170720     -0.827226      0.582264
O      13.05746      3.71599     14.61623        -0.257658      2.042339      0.181772
O      12.97098      0.01181      2.31475         0.175296      0.412731     -0.062362
O      13.24116      0.01877     14.58402         0.100667     -0.610120      0.305159
O       1.62772      3.73783      6.37341        -0.509302      0.433809      0.136259
O       2.02489     14.93202      6.38205         0.341001      1.943714      0.321535
O      13.37058      3.79754      6.43909        -0.323264     -0.620454     -0.362186
O      12.89879     14.94392      6.45199        -0.396452      1.098646     -0.330512
O       1.66714      3.70919     10.41990         0.500562      0.565485      0.459860
O       2.05198      0.05164     10.55535        -0.671921     -1.172773      0.334675
O      13.27285      3.78461     10.36698        -0.399438     -0.984037      0.671887
O      13.06349      0.02096     10.53535        -0.508009      0.417428     -0.304753
O       2.02003      7.54001      2.33881        -0.583362     -0.450106     -0.091910
O       1.70917      7.56832     14.50618        -0.026660     -1.213103      0.229580
O      12.99729      7.50302      2.28188        -0.290285      0.253418      0.461249
O      13.29961      7.46232     14.59154         0.149419      1.054019     -0.141041
O       2.04815      7.54215      6.22616         0.241451     -0.416741      0.775315
O      12.91063      7.57512      6.36430        -0.222781     -1.105235      0.004938
O       2.00997      7.46804     10.60753        -0.113903      0.384405     -0.358137
O      13.10040      7.50904     10.45919        -0.579864     -0.333616      0.309768
O       1.58977     11.28571      2.18625         0.444177     -0.458683      0.832181
O       1.96883     11.23529     14.54479         0.134803      0.775394      0.400127
O      13.12470     11.30205      2.28024         0.507895     -1.046329      0.304703
O      13.02051     11.30105     14.56214        -0.569442     -0.219415      0.446568
O       1.66037     11.20891      6.37679         0.086677      1.307574      0.102245
O      13.27075     11.28005      6.37053         0.291128     -0.659506      0.343844
O       1.72279     11.27014     10.43574         0.006646      0.084889      0.368553
O      13.23445     11.23508     10.59267         0.207670      0.998689     -0.444496
O       5.67202      3.72635      2.27109         0.558756      0.607974      0.781294
O       5.48207      3.78938     14.62304        -0.404301      0.823842      0.199972
O       5.54974     14.97768      2.24335        -0.091288      1.954090      0.264842
O       5.65243      0.03452     14.50795         0.153976      0.131870      0.413267
O       5.86668      3.74611      6.29264        -0.324576     -0.184825      0.381764
O       5.33355      0.04820      6.47154        -0.007097     -1.681305     -0.198018
O       5.71142      3.65263     10.43963        -0.217849      1.526678      0.108561
O       5.53635     14.93876     10.58822        -0.266255      1.479935     -0.109247
O       5.54055      7.53857      2.35113        -0.432918      0.315446     -0.166752
O       5.80225      7.49657     14.55332        -0.054906      0.030077      0.078992
O       5.33984      7.49622      6.19025        -0.214641      0.675671      0.748402
O       5.51142      7.48433     10.48690        -0.508122      0.226939      0.145241
O       5.80494     11.25154      2.15060        -0.517752      0.672908      0.491433
O       5.48427     11.31472     14.61203        -0.085075     -1.002598     -0.099657
O       5.77745     11.28319      6.32275         0.647852      0.393985      0.239678
O       5.68969     11.23887     10.40024         0.534627      0.305072      0.642313
O       9.23509      3.76914      2.15430         0.179755     -0.559683      0.880694
O       9.58076      3.80589     14.62399        -0.604972     -0.271398      0.180975
O       9.48183      0.01105      2.35129         0.124184     -0.112848     -0.340530
O       9.26042     15.00643     14.53379        -0.303706      0.306657      0.420546
O       9.12122      3.72834      6.29552        -0.379677      0.382452      0.432589
O       9.62681      0.02130      6.44114        -0.169636     -0.432308      0.146719
O       9.22942      3.69153     10.50600        -0.505176      1.088890      0.371375
O       9.43800      0.03511     10.51928         0.556338     -1.095478      0.288387
O       9.39034      7.52264      2.21458         0.529420      0.081408      0.621059
O       9.25408      7.50448     14.65480        -0.137684     -0.268459      0.265101
O       9.52952      7.49185      6.43204         0.130821      0.875206     -0.177355
O       9.44472      7.48346     10.46075         0.038525     -0.094067      0.121363
O       9.36021     11.26518      2.22617        -0.328147      1.049644      0.294955
O       9.46402     11.20831     14.53715        -0.001045      2.032428      0.793620
O       9.21236     11.26137      6.50066        -0.685079     -0.868131     -0.060894
O       9.37076     11.29873     10.55829        -0.608478     -0.002018     -0.240957
