  # total energy = -7881.59633966 
CRSYTAL
PRIMVEC
    15.3600000000000000    0.0000000000000000    0.0000000000000000
     0.0000000000000000   15.3600000000000000    0.0000000000000000
     0.0000000000000000    0.0000000000000000    17.440000000000000
PRESSURE
1.32151 1.13469 -0.199683 -0.034881 -0.319222 -0.032979
PRIMCOORD
320 1
Pb       3.94325      3.78906      4.36523        -0.121021      0.145041      0.194935
Pb       3.86865      3.81210      0.02218        -0.312546     -0.392569     -0.770959
Pb       3.78392      0.03362      4.35217         0.279694     -0.367309      0.075636
Pb       3.82103     15.28760     17.33697         0.150063      0.735469     -0.132733
Pb       0.07724      3.82805      4.33923        -0.459373     -0.300801      0.269267
Pb       0.02732      3.82339     17.43901         0.080139      0.001962     -0.511384
Pb       0.07514      0.03337      4.37924        -0.447781     -0.513722     -0.363540
Pb      15.25185      0.09578     17.35322        -0.156409     -0.479195      0.311367
Pb       3.74987      3.84939      8.65621        -0.247480      0.380685     -0.552892
Pb       3.73541     15.28273      8.67962         0.140107     -0.034253     -0.394442
Pb      15.12722      3.94282      8.66287         1.039234     -0.140069     -0.279637
Pb      15.26326     15.27315      8.73326         0.164963      0.427348     -0.856351
Pb       4.00455      3.66083     13.01792        -1.150817      0.774751      0.297341
Pb       3.81374      0.00044     12.95193         0.105659      0.031400      0.080860
Pb       0.02657      3.77018     13.01134        -0.064044      0.631740      0.065017
Pb      15.26656     15.19450     13.02678         0.316577      0.355555      0.357025
Pb       3.84124      7.68277      4.31047         0.352869      0.228806      0.045869
Pb       3.80006      7.66948      0.03714        -0.155790      0.096545     -0.694548
Pb       0.10248      7.70522      4.27444        -0.691618      0.341010      0.338917
Pb       0.05442      7.69509      0.05410        -0.119921      0.116918     -0.349726
Pb       3.73832      7.67152      8.63461         0.099023      0.056640     -0.417790
Pb      15.22343      7.65376      8.65135         0.562016      0.100884      0.124214
Pb       3.90335      7.58485     13.08316        -0.769043     -0.028600     -0.042981
Pb      15.33965      7.67459     13.05021         0.231108     -0.004044      0.215423
Pb       3.81530     11.50796      4.33694         0.139188      0.037628     -0.191043
Pb       3.85335     11.55432     17.41573         0.078331     -0.457329     -0.136865
Pb       0.08857     11.55653      4.27826        -0.260565      0.015513     -0.408798
Pb      15.23578     11.46969     17.42298         0.065968     -0.008397      0.258018
Pb       3.85404     11.44757      8.67936         0.131487      0.061119     -0.621747
Pb       0.03205     11.49449      8.71951        -0.210616     -0.265392      0.063756
Pb       3.89434     11.37075     12.99421        -0.364541      0.144302     -0.412635
Pb       0.13425     11.44781     13.01048        -0.423462     -0.048836      0.341930
Pb       7.64217      3.81038      4.17420         0.578555     -0.220963      1.654576
Pb       7.70959      3.78623      0.06391        -0.119941      0.122140     -0.541565
Pb       7.63571     15.30261      4.39941         0.367628     -0.065386     -0.284936
Pb       7.51526     15.35366     17.37520         0.343313     -0.514053      0.066419
Pb       7.48264      3.91876      8.65018         0.605293     -0.030591     -0.065186
Pb       7.66433      0.05585      8.75905         0.081809     -0.336144     -0.607667
Pb       7.79532      3.87128     13.00606        -0.265895      0.316250      0.399195
Pb       7.70730      0.06726     12.94493         0.010949     -0.890827      0.398780
Pb       7.71752      7.61190      4.32221        -0.245864      0.516281     -0.006578
Pb       7.57543      7.71918      0.02579         0.450675     -0.058792     -0.467984
Pb       7.74089      7.59981      8.72836        -0.104482      0.830521     -0.291797
Pb       7.73258      7.70568     13.11437        -0.911093     -0.087698      0.194838
Pb       7.63847     11.40276      4.34745         0.351690      0.345353      0.001208
Pb       7.60837     11.63430     17.24419        -0.142614     -0.598316      1.328041
Pb       7.74884     11.56231      8.72392        -0.133167     -0.280392     -0.503313
Pb       7.74477     11.61312     12.94670        -0.092515     -0.241769     -0.500376
Pb      11.49475      3.73444      4.27876         0.147038      0.168000      0.120315
Pb      11.62838      3.86387      0.14972        -0.036929      0.327189     -0.362772
Pb      11.65828     15.31233      4.36853        -0.513163     -0.143986      0.273056
Pb      11.24951     15.27229      0.03076         0.847844     -0.265162     -0.405738
Pb      11.51514      3.85206      8.61238        -0.157245      0.156547      0.212105
Pb      11.43545      0.06702      8.72530         0.243892     -0.514604     -0.569167
Pb      11.47951      3.74942     12.99702         0.611505      0.189109      0.362677
Pb      11.43015     15.28415     13.11714         0.357848      0.206282      0.060838
Pb      11.57390      7.50689      4.34914         0.185567      0.534946     -0.661304
Pb      11.41300      7.73930     17.41971        -0.017466      0.000337     -0.228963
Pb      11.61721      7.70366      8.64345        -0.601467      0.378462     -0.066741
Pb      11.37130      7.54251     13.16275         0.310041      0.758444      0.098032
Pb      11.47500     11.48044      4.24544        -0.122601     -0.126673      0.287141
Pb      11.41495     11.48999     17.35058         0.279818      0.208418      0.488722
Pb      11.41161     11.41115      8.68990         0.061813     -0.144874     -0.342884
Pb      11.59207     11.49996     13.03813        -0.228020     -0.867036      0.885851
Ti       1.94883      1.86786      2.37764        -0.092496      0.797086     -1.326264
Ti       1.87072      1.89442     15.34420         0.884001      1.378752      0.366374
Ti       1.95202     13.47559      2.24742        -0.220557     -0.546809      1.374786
Ti       1.89023     13.49348     15.36643        -0.514130     -0.651433     -1.073966
Ti      13.48666      1.83889      2.25772         0.059052     -0.018672      0.027152
Ti      13.32606      1.82583     15.52043        -0.014780      0.377909     -0.604301
Ti      13.36341     13.43978      2.34767         1.778774     -1.055980     -1.354707
Ti      13.48707     13.35964     15.35628        -1.408530     -0.217431      0.992454
Ti       1.87360      1.94315      6.65315        -0.372570      0.629857      1.556899
Ti       1.87661     13.41194      6.68576         0.827997     -0.179154      0.193078
Ti      13.39531      1.88967      6.66380         1.112206     -0.000741     -1.219284
Ti      13.39800     13.37629      6.67935        -0.181393      0.606663     -0.635805
Ti       1.85309      1.98210     10.94711         0.497238      0.091803     -0.310035
Ti       1.93608     13.56430     11.05736         0.071817     -1.598425     -0.417576
Ti      13.38202      1.92029     11.06647         0.098829      0.500713     -0.233248
Ti      13.43444     13.44122     11.04857        -0.599437     -1.267036      0.253270
Ti       1.90323      5.69282      2.42377         0.631867      0.368192     -0.391559
Ti       1.88719      5.77998     15.46024         0.082885     -0.596838     -0.608045
Ti      13.50206      5.67131      2.31139        -1.790541      0.611815     -0.478793
Ti      13.33833      5.71413     15.42179         0.605039      0.154242      0.061589
Ti       1.88552      5.79852      6.58163         0.032394     -0.525602      0.924348
Ti      13.39464      5.79406      6.64066         0.830366     -0.284172      0.166637
Ti       1.87132      5.77447     10.99885         0.334666      0.592015      0.021331
Ti      13.42269      5.86448     11.08087         0.574484     -0.802622     -0.943873
Ti       1.95194      9.56752      2.25100        -0.432352      0.706606      0.616356
Ti       1.90341      9.67093     15.38275        -0.270363     -1.189533      0.421649
Ti      13.43371      9.62311      2.32447        -0.010441     -0.551628     -0.696787
Ti      13.38209      9.54048     15.45202         0.053969      0.118023     -1.152435
Ti       1.80667      9.61679      6.71496         1.911617     -0.453417     -0.141562
Ti      13.45799      9.66314      6.61857        -0.688938     -0.591805      0.988177
Ti       1.84650      9.59446     10.99715        -0.421059     -0.527337     -1.087519
Ti      13.31880      9.64105     11.11377         0.909064     -0.637134      0.024585
Ti       5.76417      1.84198      2.36269        -0.435346      0.460371      0.636502
Ti       5.81809      1.91278     15.32574        -1.672293     -0.105958      0.316421
Ti       5.75397     13.47765      2.26435        -0.359262     -0.694485      0.607200
Ti       5.65406     13.37908     15.25315         0.738972      0.217704      1.537904
Ti       5.70347      1.98709      6.73808         0.153964     -0.772104     -1.027879
Ti       5.83049     13.51226      6.68442        -0.506341     -1.685516      1.238053
Ti       5.82983      1.93759     11.07328        -1.135763     -0.542172     -0.841173
Ti       5.77605     13.40032     10.98416         0.507849      0.076905      0.508517
Ti       5.79261      5.72089      2.33688        -0.786838      0.736198      1.004192
Ti       5.72065      5.69731     15.38800         0.154438      0.632710      0.322670
Ti       5.74032      5.85933      6.60971        -1.088647      0.111321      0.441767
Ti       5.75747      5.77763     11.04749        -0.776068      0.461942     -1.622045
Ti       5.77929      9.61655      2.30988        -0.035854      0.264033      0.529003
Ti       5.68055      9.50366     15.30208        -0.714537      0.990578      1.209638
Ti       5.76714      9.63934      6.67864        -0.136680      0.242070      1.168607
Ti       5.62162      9.49941     10.93503         1.165987      0.526137     -0.531019
Ti       9.64960      1.80113      2.39794        -0.606835      0.066133      0.551410
Ti       9.57831      1.90921     15.39736        -0.249999     -0.244501     -0.637257
Ti       9.60657     13.40247      2.29715        -0.888991     -0.871122     -0.047244
Ti       9.54810     13.43362     15.38359         0.272461      0.074741      1.629134
Ti       9.58699      1.96578      6.73470        -1.025592     -0.177564     -1.042988
Ti       9.68602     13.41186      6.67497        -0.760689     -0.336026     -0.122308
Ti       9.58802      1.94546     10.99313         1.591391     -0.373986     -0.900360
Ti       9.71502     13.42074     10.96897        -1.176704     -1.352839     -1.037928
Ti       9.59702      5.75771      2.30376         0.586314     -0.115523     -0.701682
Ti       9.53471      5.67405     15.42684         0.131304      1.253306      0.855112
Ti       9.62211      5.79020      6.67137        -0.633866     -0.129455      2.067249
Ti       9.61605      5.80168     10.99744        -0.423023      0.444227     -0.864878
Ti       9.60786      9.57180      2.30425         0.270753      0.468378     -0.683528
Ti       9.43068      9.60646     15.40058         1.451884     -0.616244      0.591619
Ti       9.62296      9.56269      6.51730        -0.586148      0.161844     -0.385179
Ti       9.50546      9.56457     11.10539         0.424266      0.353569     -1.719099
O       1.92454      1.82976      0.61108         0.059622     -0.018176     -0.370756
O       1.96223      1.96511     13.58945        -0.277403     -0.035233     -0.351878
O       2.10725     13.46832      0.51804        -0.533235      0.316480     -1.136892
O       1.84822     13.60965     13.57756         0.113571     -0.457525     -0.027121
O      13.42188      1.83889      0.43942         0.041308     -0.177507      0.640059
O      13.26419      1.86307     13.76349         0.294870      0.192060     -0.816316
O      13.58389     13.42376      0.55128        -0.302319      0.044856      0.851584
O      13.37409     13.25144     13.59006         0.332466      0.417991      0.044359
O       1.86712      2.01307      4.90952        -0.143520     -0.464112     -0.929546
O       1.91095     13.49856      4.92943         0.040724     -0.434492     -0.305634
O      13.48374      1.91741      4.86402        -0.257023     -0.323140      0.670893
O      13.28183     13.44033      4.88492         0.393924      0.026803      0.753967
O       1.89567      1.93664      9.18250         0.239719     -0.106070      0.194440
O       1.87479     13.52268      9.29490        -0.406519      0.125669     -0.194331
O      13.24351      1.86717      9.31437         0.394086      0.062089     -0.076960
O      13.31577     13.55124      9.28415         0.511387     -0.161325      0.523861
O       1.88841      5.91644      0.68006         0.167401     -0.476506     -0.582618
O       1.82558      5.66071     13.70404        -0.156712      0.139735      0.233790
O      13.24749      5.59472      0.51330         0.761687      0.328312      0.848275
O      13.50681      5.68054     13.64736        -0.551994      0.026160      0.462349
O       1.76563      5.69339      4.83620         0.207147      0.216901     -1.425502
O      13.36813      5.69714      4.88470        -0.114238      0.122089     -0.201978
O       1.84754      5.92420      9.22395         0.010447     -0.663102      0.401863
O      13.52874      5.74018      9.21452        -0.601509      0.298774      1.350462
O       1.91553      9.51442      0.51625         0.220014     -0.230288     -0.926702
O       1.91552      9.57089     13.61733         0.070371      0.298795     -0.223441
O      13.46102      9.53871      0.53510        -0.191694      0.002961      0.255823
O      13.40838      9.67253     13.64551         0.001245     -0.164381      0.389210
O       1.80087      9.71196      4.96559         0.152417     -0.161901     -1.276263
O      13.51368      9.54883      4.93449        -0.029066      0.177066     -2.035785
O       1.68531      9.38274      9.18376         0.560970      0.858576      0.942883
O      13.37153      9.61923      9.36725         0.043275     -0.197653     -1.321811
O       5.83643      1.87548      0.63221        -0.146042      0.252565     -1.102007
O       5.80712      2.01456     13.55354         0.277001     -0.400598     -0.419167
O       5.63183     13.46042      0.50858        -0.128946      0.102787     -0.500103
O       5.62429     13.38992     13.54146         0.456304     -0.269043     -1.378019
O       5.63823      1.92965      4.94262         0.515101     -0.224243      0.253642
O       5.73098     13.40242      4.95200         0.017986      0.395443     -0.722180
O       5.77103      2.01980      9.31331         0.179856     -0.180772     -0.049520
O       5.90570     13.41016      9.27046        -0.388062      0.197417     -0.641658
O       5.79127      5.74648      0.60700         0.121199     -0.009855     -1.079433
O       5.81811      5.76429     13.64841        -0.234536     -0.216060     -0.944011
O       5.73745      5.77229      4.86170         0.260143      0.128099     -0.620992
O       5.56551      5.89337      9.20274         0.521156     -0.627124      1.646666
O       5.79323      9.58553      0.57265        -0.261376     -0.326048     -0.118183
O       5.63859      9.42625     13.55785         0.018586      0.816509     -0.800279
O       5.73260      9.75507      4.95098        -0.152829      0.003093     -1.705097
O       5.65184      9.55058      9.13705         0.000856     -0.306993      1.266438
O       9.55781      1.81500      0.64444        -0.172305      0.177866      0.197099
O       9.53193      1.91956     13.57050         0.119809     -0.170100      0.885879
O       9.50182     13.48894      0.51848         0.305903     -0.043931      0.159218
O       9.51254     13.35385     13.66731         0.078152      0.213527     -1.021066
O       9.43993      1.96486      4.93616         0.470613     -0.228188      0.838801
O       9.65839     13.32147      4.90656         0.026105      0.371221      0.395409
O       9.61927      1.79584      9.19611        -0.022728      0.504074      0.949363
O       9.62594     13.28463      9.13865         0.572947      0.424621      1.010311
O       9.55434      5.84133      0.51452        -0.129480     -0.707323      0.701572
O       9.49265      5.76899     13.66732         0.318765     -0.086612     -1.025697
O       9.56873      5.70851      4.97931         0.174405      0.039124     -2.027448
O       9.55525      5.99309      9.22173         0.501644     -0.347929      0.955193
O       9.51465      9.61580      0.47781        -0.054374     -0.392194      1.190238
O       9.56070      9.54199     13.61164        -0.589595      0.122046      0.363866
O       9.65956      9.73498      4.72883        -0.293826     -0.787062      0.413718
O       9.50470      9.58546      9.27773         0.565895     -0.346441      0.850707
O       3.81243      1.97297      2.76721         0.445960      0.196087      0.139686
O       3.89982      1.97265     15.75951        -0.017381     -0.642983      0.104277
O       3.80337     13.55626      2.75647        -0.176130     -0.592596      0.047715
O       3.76656     13.45021     15.61198        -0.151683     -0.465755      0.632615
O      15.33528      1.75287      2.63966        -0.274484      0.331417      0.266896
O      15.29584      1.98888     15.79842         0.503618     -0.435269     -0.077942
O      15.34768     13.41546      2.78672         0.817044      0.577886     -0.196330
O      15.30759     13.28359     15.67319         0.777330      1.010250      0.326725
O       3.80240      1.89885      6.97617        -0.343672      0.199851      0.786614
O       3.81749     13.24414      7.19133         0.103078      1.014830     -0.344914
O      15.30618      1.91815      7.01593         0.233543     -0.519040      0.435125
O      15.33538     13.39912      7.01454        -0.680022      0.278458      0.558917
O       3.89062      1.84324     11.33077        -0.259813      0.404327      0.386777
O       3.83596     13.58185     11.29028         0.161580      0.042914      0.255122
O      15.32330      2.01731     11.19928        -0.770476     -0.447883      0.717324
O      15.32491     13.25234     11.46034        -0.339691      1.277631     -0.342473
O       3.85756      5.70196      2.68756        -0.282320      0.328522      0.278484
O       3.83445      5.59643     15.77068         0.117552      0.856380      0.482227
O      15.30918      5.77933      2.70839         0.449071     -0.376308      0.010025
O      15.31616      5.78182     15.93230        -0.185037     -0.437577     -0.136664
O       3.79559      5.67649      6.92103        -0.220393      0.009795      0.488928
O      15.34266      5.76754      7.03002        -1.043691      0.103252      0.112606
O       3.78622      5.77816     11.39594         0.413258     -0.340306      0.173790
O      15.26561      5.70557     11.53280         0.932854     -0.150636     -0.288116
O       3.82834      9.52077      2.68164         0.152312      0.034380      0.158250
O       3.79410      9.64501     15.81289        -0.170865      0.018983      0.044234
O      15.32132      9.62255      2.52737         0.924228     -0.371741      0.881962
O      15.29976      9.42664     15.81829         0.381863      0.092356      0.020431
O       3.77065      9.65736      7.00422        -0.195536      0.382372      0.543053
O      15.32945      9.55330      7.00058        -1.178177      0.247661      0.815153
O       3.74280      9.49323     11.37916         0.882233      0.372899      0.094992
O       0.02171      9.77170     11.41575        -0.078695     -0.472538      0.231741
O       7.62292      1.78492      2.81303         0.759054     -0.007947     -0.184637
O       7.61816      1.74842     15.84951         0.124296      1.029624     -0.179229
O       7.61807     13.46877      2.62389        -0.349628      0.173234      0.373316
O       7.64067     13.37988     15.75154        -0.745670      0.441772     -0.509272
O       7.65350      1.92227      7.22579        -0.028608     -0.016023     -0.343854
O       7.77435     13.44114      7.05126        -0.674842      0.422811      0.036872
O       7.83631      1.87463     11.51739        -1.826580      0.174911     -0.561223
O       7.78964     13.40149     11.27201        -1.022291     -0.209115      0.964822
O       7.68320      5.78543      2.72525         0.159627     -0.074153     -0.048660
O       7.69052      5.83885     15.77036        -1.220799     -0.082240      0.598575
O       7.55136      5.75847      7.21121         0.715538      0.587938     -0.768946
O       7.70409      5.78989     11.24045        -0.948535     -0.472673      0.496312
O       7.75343      9.53715      2.78296        -1.130222      0.114157     -0.178428
O       7.51509      9.59628     15.84541         1.337672     -0.160269     -0.600976
O       7.66941      9.46368      6.89639         0.024254      0.049583      0.273080
O       7.62978      9.49505     11.26093        -0.977343      0.371761      0.797572
O      11.57112      1.91646      2.76667        -1.218722     -0.534875     -0.327026
O      11.39488      1.68031     15.73269        -0.165047      1.031088      0.446468
O      11.51221     13.38648      2.67086        -0.539109     -0.145160     -0.072196
O      11.53383     13.42993     15.88100        -1.043146     -0.380878     -0.547577
O      11.52954      2.07092      6.96795        -1.029876     -0.172007      0.441910
O      11.55455     13.41678      7.14166        -0.678168     -0.134459     -0.047503
O      11.48105      1.83304     11.45483        -0.351909      0.299774      0.272017
O      11.48199     13.27560     11.67659         0.578364      1.138197     -1.376998
O      11.49131      5.67201      2.66603        -0.215840     -0.510775      0.495463
O      11.43582      5.65407     15.84757         0.109362     -0.128218     -0.253302
O      11.49646      5.72069      7.21596         0.316532      0.283252     -0.787828
O      11.52849      5.85042     11.49632        -0.598954      0.147015     -0.252593
O      11.54296      9.58497      2.61956        -0.664560      0.203296      0.310100
O      11.38332      9.74409     15.88999         0.317634     -0.898649     -0.612923
O      11.50532      9.57716      6.85434         0.133686     -0.096101      0.939381
O      11.49187      9.49439     11.41588        -1.023009     -0.397558      0.424260
O       1.83897      3.79805      2.67009        -0.241549      0.634159      0.255426
O       2.09804      3.74707     15.93495        -1.782580      0.636079      0.028049
O       1.92891      0.06002      2.73047        -0.049587     -1.695241      0.532565
O       1.84575      0.02897     15.61404        -0.027448     -0.555138      0.940975
O      13.41003      3.69650      2.66849         0.344380      0.973582     -0.122859
O      13.32320      3.77652     15.96067         0.035915      0.018739     -0.446262
O      13.32966     15.28356      2.73763         0.425672      1.039012      0.010124
O      13.28681     15.24904     15.76972         1.457859      0.306709      0.006410
O       1.79549      3.87270      6.97496         0.448231     -0.840907      0.542828
O       1.95853     15.26913      7.04080        -0.329070      1.096111      0.286322
O      13.44919      3.86231      7.04948        -0.293507     -0.127426      0.306194
O      13.35410      0.01251      7.07951         0.123094     -0.210677      0.119243
O       1.90731      3.87276     11.39636         0.040203     -0.638862     -0.159197
O       1.79083      0.07781     11.39940        -0.108774     -0.201640      0.262375
O      13.32834      3.89097     11.50804        -0.069718     -1.231496     -0.365416
O      13.33369     15.28248     11.57946         0.466905      0.573151     -0.458614
O       1.84588      7.70357      2.76541         0.436400     -0.491571      0.099741
O       1.98522      7.65135     15.78759         0.002468     -0.137024      0.407216
O      13.30913      7.56631      2.70885         0.605472      0.401825      0.058802
O      13.18377      7.65547     15.62411         0.177756     -0.643440      0.586156
O       1.86311      7.64335      6.92561         0.165570      0.457641      0.205605
O      13.35106      7.68368      7.02102         0.140454     -0.073237      0.112112
O       1.85002      7.67150     11.45172        -0.396127     -0.023984      0.172881
O      13.60995      7.72727     11.40110        -0.540183     -0.845795      0.215971
O       1.99975     11.50381      2.60316        -0.307377      0.407321      0.296694
O       1.78275     11.48067     15.71819         0.483351      1.031661      0.154380
O      13.49562     11.51102      2.76503        -0.385022     -0.200974     -0.130795
O      13.47151     11.39017     15.97068        -0.478782      1.316058     -0.594694
O       1.82068     11.47607      7.17840        -0.170037      0.695346      0.171976
O      13.33683     11.51924      7.11709         0.666951     -0.010639      0.000055
O       2.03289     11.58704     11.38286        -0.031589     -0.487280      0.212297
O      13.32481     11.46011     11.38066         0.114475      1.707685      0.300061
O       5.80677      3.83255      2.82976        -0.377658     -0.055316     -0.991420
O       5.77446      3.85246     15.75096         0.790827     -1.009381      0.474197
O       5.54458      0.01907      2.67865         0.851067     -0.559542      0.367478
O       5.62819     15.28490     15.63719         0.593481      0.367367      0.227539
O       5.70370      3.83944      6.98364         0.106253      0.306928      0.695517
O       5.72572     15.35600      7.15371         0.088891      0.151739     -0.008929
O       5.78759      3.84072     11.49225         0.400515      0.099229     -0.389984
O       5.83487     15.34984     11.40458         0.420485      0.418299      0.156639
O       5.77467      7.74354      2.82837         0.029595     -1.036722     -0.261294
O       5.58467      7.71061     15.69187         0.333348     -1.315911      0.749772
O       5.48622      7.74538      6.89929         0.769011     -1.191840      0.130779
O       5.66794      7.65013     11.50326         0.446646     -0.224942     -0.394326
O       5.62329     11.53245      2.62598         0.349794      0.103112      0.300387
O       5.67376     11.46742     15.87598        -0.099619      0.894486     -0.968667
O       5.82751     11.56752      7.16113        -0.007598     -0.207701      0.006419
O       5.73458     11.47899     11.34876        -0.332526     -0.295334      0.314361
O       9.53211      3.76560      2.81732         0.152876     -0.098912     -0.983378
O       9.40836      3.80912     15.77048         0.205842     -1.075590      0.225529
O       9.60721     15.19072      2.80274         0.119398      2.314323      0.211862
O       9.43874      0.02538     15.91187         0.455226     -0.939792     -0.599632
O       9.50623      3.94687      7.22690         0.200191     -1.252832     -0.163503
O       9.66849      0.01801      7.04825        -0.045087      0.250025     -0.010354
O       9.58221      3.86678     11.39626         0.415825     -0.257486     -0.384627
O       9.65747     15.20509     11.36855         0.020234      2.043426      0.200516
O       9.65835      7.62413      2.67100        -0.228037      0.176606      0.321708
O       9.60918      7.67470     15.82098        -0.237223      0.656142     -0.304134
O       9.59967      7.66909      6.96810         0.080625     -0.200008      0.291580
O       9.37500      7.64490     11.60455         1.930916     -0.237743     -0.618426
O       9.52689     11.51548      2.74343         0.313980     -0.154341     -0.468795
O       9.54200     11.53068     15.85091        -0.459501      0.039698     -0.592705
O       9.53885     11.38438      6.97722         0.348873      1.333416      0.612541
O       9.55144     11.46302     11.39184         0.135385     -0.017958      0.444343
