  # total energy = -7882.10968816 
CRSYTAL
PRIMVEC
    15.6000000000000000    0.0000000000000000    0.0000000000000000
     0.0000000000000000   15.6000000000000000    0.0000000000000000
     0.0000000000000000    0.0000000000000000    17.640000000000000
PRESSURE
-2.77129 -2.37061 -3.76617 0.135993 -0.362836 0.036277
PRIMCOORD
320 1
Pb       3.76492      3.75186      4.37125         0.473756      0.480038      0.134745
Pb       3.89027      3.92054     17.56726        -0.083203     -0.094825      0.592592
Pb       3.88568     15.55046      4.29584        -0.302601     -0.427472      0.374477
Pb       3.80930     15.55310     17.50083        -0.140005      0.354640      0.873229
Pb       0.05347      3.88324      4.37074        -0.453942      0.228589      0.165135
Pb      15.58659      3.95771     17.62071         0.325005     -0.120818     -0.018876
Pb      15.53134     15.52785      4.27599         0.357471      0.229025      0.590249
Pb      15.47953      0.04119     17.52365         0.439621     -0.395280      0.354958
Pb       3.82224      3.94858      8.76548         0.094585     -0.127830      0.619787
Pb       3.82379      0.05693      8.69053         0.162683     -0.621269      0.836477
Pb      15.57087      3.91996      8.65629        -0.306296      0.266940      1.533699
Pb       0.01256     15.59265      8.73291        -0.132869     -0.052357      0.871917
Pb       3.91913      3.63408     13.21542        -0.075660      1.063719      0.293015
Pb       3.80765     15.52085     13.14668         0.133544     -0.084078      0.369284
Pb      15.58422      3.76559     13.14415         0.187502      0.641175      0.711302
Pb      15.58953      0.12777     13.11003        -0.042202     -0.629768      0.622963
Pb       3.88265      7.82737      4.38883         0.345353     -0.641986      0.248128
Pb       3.95930      7.81774     17.56447        -0.442684     -0.277866      0.394070
Pb       0.03305      7.99630      4.40844        -0.059198     -1.189673      0.050748
Pb       0.04281      7.86331     17.51059         0.047419     -0.279140      0.372755
Pb       3.90783      7.91086      8.82549         0.231958     -0.399092      0.393057
Pb      15.56226      7.81275      8.82406        -0.028444     -0.148966      0.841694
Pb       3.90349      7.79451     13.09471         0.183452     -0.503527      0.845070
Pb       0.06986      7.89870     13.15492        -0.022769     -0.685480      0.594303
Pb       3.91217     11.62928      4.34557        -0.314214      0.926956      0.781550
Pb       3.94186     11.62951     17.53233        -0.214830      0.177764      0.898491
Pb      15.50052     11.51804      4.25095         0.478780      0.911139      0.842938
Pb      15.54916     11.62637     17.47480        -0.001157      0.400507      0.741692
Pb       3.83712     11.56184      8.70674         0.174707      1.179491      1.304753
Pb      15.51896     11.76869      8.78187         0.178005     -0.318557      0.732895
Pb       3.84126     11.76060     13.12765         0.254671     -0.008326      0.640025
Pb      15.51363     11.61808     13.13518        -0.015306      0.418359      0.398564
Pb       7.87656      3.68187      4.48082        -0.469110      0.843083      0.168200
Pb       7.78481      3.82770     17.52935         0.028921      0.136105      0.701055
Pb       7.70340     15.46569      4.28672         0.162444      0.068729      1.114792
Pb       7.76325     15.58168     17.62175        -0.139625      0.003631      0.008211
Pb       7.69577      3.90764      8.71282         0.007846      0.236597      1.275151
Pb       7.82138     15.58437      8.66148        -0.062659     -0.373500      1.256327
Pb       8.03836      3.96391     13.06263        -0.694205     -0.468472      0.761237
Pb       7.79406      0.03351     13.21548         0.098287     -0.005511      0.274859
Pb       7.94388      7.76500      4.35410        -0.708499     -0.160482      0.463838
Pb       7.81981      7.91320     17.62395        -0.165155     -0.673132      0.474906
Pb       7.74875      7.82528      8.71428        -0.440358      0.093903      0.266355
Pb       7.76776      7.93560     13.05197        -0.338540     -0.582882      0.986465
Pb       7.86065     11.72005      4.38071         0.001512     -0.317264      0.792875
Pb       7.77855     11.70886      0.01558         0.085863      0.136789      0.063852
Pb       7.84631     11.70902      8.93787        -0.358714      0.102523     -0.248441
Pb       7.79658     11.77503     13.17579        -0.071212     -0.238917      0.421734
Pb      11.64370      3.88091      4.42161         0.661721      0.385019      0.439988
Pb      11.88309      3.83256     17.57597        -1.309649      0.231871      0.910667
Pb      11.51650     15.42103      4.39517         0.398771      0.347393      0.334827
Pb      11.47584     15.48653     17.59522         0.665749      0.130248      0.511173
Pb      11.53679      3.90726      8.74793         0.516589      0.153911      1.063072
Pb      11.81901      0.06862      8.66968        -0.435657     -0.167078      1.097719
Pb      11.80446      3.91888     13.17982        -0.708876     -0.022839      0.226802
Pb      11.69067     15.56105     13.14296        -0.093596      0.028473      0.529375
Pb      11.77030      7.69234      4.24281        -0.103113     -0.225423      0.403417
Pb      11.72661      7.71698     17.48205        -0.442923     -0.010167      0.868086
Pb      11.57511      7.79297      8.66801         0.386331      0.010505      0.895977
Pb      11.75938      7.72510     13.20325        -0.319884      0.091127      0.276087
Pb      11.68917     11.66238      4.21936         0.024012     -0.140771      0.666069
Pb      11.83098     11.54615     17.41819        -0.627825      0.696587      1.373538
Pb      11.73401     11.60487      8.56386         0.049499      0.018624      1.628853
Pb      11.60590     11.60963     12.97101         0.453465      0.345408      1.616747
Ti       1.89877      1.91465      2.43375         0.505979     -0.044505     -1.424726
Ti       1.86939      2.00644     15.70925         0.059833     -0.541737     -0.742653
Ti       1.89321     13.58112      2.41254         0.883290      0.990149     -1.350523
Ti       1.95359     13.61726     15.71384        -0.563534      0.704645     -1.631365
Ti      13.61007      1.88336      2.49342        -0.220532      0.328286     -1.255602
Ti      13.49322      1.90556     15.76804         1.000120     -0.669049     -2.319612
Ti      13.68477     13.61288      2.42885        -0.313148     -0.306448     -1.095368
Ti      13.64083     13.63391     15.60151        -0.102827      0.015690     -0.614195
Ti       1.90187      2.00170      6.84120        -0.198046     -0.888889     -0.904458
Ti       1.87846     13.67105      6.86631         1.295300     -0.511316     -1.489561
Ti      13.62902      1.94735      6.85063         0.101000      0.780135     -1.770114
Ti      13.65306     13.63327      6.79514        -0.024071     -0.094876     -1.079855
Ti       1.95769      1.94529     11.17026        -0.118611     -0.499327     -0.098976
Ti       1.88888     13.58952     11.21858        -0.534126      0.865402     -0.625299
Ti      13.56106      1.97429     11.24570         0.354578     -0.714317     -1.656412
Ti      13.61510     13.62788     11.27889         0.361296     -0.034706     -1.294449
Ti       1.89417      5.86121      2.37575         0.287776      0.264120     -0.892414
Ti       1.88610      5.87660     15.67115         0.514047      0.000544     -1.149583
Ti      13.69861      5.69828      2.35027        -0.659699      1.125274      0.173134
Ti      13.56930      5.79773     15.68955         0.422492      0.311624     -1.507167
Ti       1.91709      5.92069      6.91726        -0.604420      0.090421     -0.737144
Ti      13.59328      5.85473      6.93112        -0.020687     -0.106006     -2.040393
Ti       1.95007      5.80518     11.32561        -0.342702      0.329183     -1.509829
Ti      13.67618      5.86297     11.33092         0.447919     -0.179427     -0.635405
Ti       2.01280      9.73730      2.40820        -0.931735     -0.010765     -1.895438
Ti       1.94838      9.79473     15.62765        -0.009275     -0.782759     -1.161858
Ti      13.64154      9.65658      2.40385        -0.726484      0.034680     -1.070694
Ti      13.60397      9.68617     15.62292         0.513269      0.151869     -1.460324
Ti       1.89256      9.75368      6.92692        -0.163611      0.215534     -0.864646
Ti      13.67123      9.71724      6.82179        -0.005500     -0.740724      0.608982
Ti       1.93860      9.74936     11.26887        -0.482044     -0.420513     -1.544635
Ti      13.60962      9.67343     11.24537         0.291411      0.908401     -0.857832
Ti       5.88597      1.92346      2.53576        -0.908152      0.332702     -2.483504
Ti       5.76041      1.99666     15.60828         0.430195     -0.682652     -1.079800
Ti       5.89201     13.54435      2.44485        -1.179617      0.937834     -1.649694
Ti       5.80104     13.69781     15.71676         0.466347     -0.175026     -1.777108
Ti       5.80197      1.88336      6.91927         0.017259      0.443624     -1.461578
Ti       5.84068     13.60696      6.93821        -0.100534     -0.277946     -0.887839
Ti       5.87376      1.98339     11.30389         0.532096     -0.580436     -1.971161
Ti       5.84828     13.70208     11.29247        -0.091713     -0.232648     -2.407738
Ti       5.73584      5.74905      2.54163         0.963378      0.675392     -0.387541
Ti       5.81344      5.85359     15.75123        -0.218929      0.194076     -2.107143
Ti       5.68732      5.78708      6.83586         0.971652      1.230278     -1.457679
Ti       5.82337      5.80602     11.21781        -0.244537      0.286038      0.552093
Ti       5.82801      9.73358      2.57378         1.085133     -1.032723     -1.816824
Ti       5.87564      9.78506     15.71641        -0.565164     -0.410525     -1.922890
Ti       5.80532      9.81924      6.79889         1.067997     -1.181635     -0.576065
Ti       5.79234      9.78911     11.28210        -0.067818      0.010905     -1.706739
Ti       9.78874      1.90414      2.53116        -0.333447      0.064270     -1.994910
Ti       9.65959      1.92045     15.62928         0.010993      0.198787     -2.003339
Ti       9.73673     13.59757      2.40520         0.056999      0.484164     -1.537363
Ti       9.74490     13.60142     15.68755        -0.581255     -0.154015     -0.854807
Ti       9.71692      1.98797      6.90233         0.071770     -0.404558     -1.261543
Ti       9.81918     13.63366      6.90368        -1.323605     -0.052835     -0.729670
Ti       9.74400      1.85489     11.22281        -0.202016      0.941026     -0.557213
Ti       9.71564     13.60729     11.21757        -0.308490      0.239405     -0.967571
Ti       9.66848      5.71344      2.45841        -0.115048      1.093433     -1.429498
Ti       9.63634      5.81580     15.67991         0.003751     -0.200039      0.391979
Ti       9.63307      5.87231      6.89064         0.211103      0.136865     -0.939753
Ti       9.72438      5.89749     11.24139        -0.160708     -0.911428     -0.863049
Ti       9.70784      9.71637      2.44160        -0.009740     -0.305367     -1.243941
Ti       9.71212      9.73225     15.73243        -0.147924      0.114568     -2.506138
Ti       9.71768      9.78046      6.83557        -0.763418     -0.263085     -2.234427
Ti       9.72804      9.69557     11.24924        -0.325353      0.454699     -1.231999
O       2.01646      1.99988      0.65562        -0.505727     -0.277894      0.591911
O       1.82717      1.97478     13.94315         0.236685      0.248207     -0.177641
O       1.92558     13.74724      0.62080        -0.119149     -0.586734      0.940335
O       2.01795     13.62524     13.92850         0.005182     -0.170716      0.434011
O      13.52981      1.96489      0.70037         0.212148      0.240591      0.186452
O      13.60345      1.79776     13.97215        -0.282285      0.356927      0.708978
O      13.71073     13.46460      0.69929        -0.173702      0.257989     -0.162342
O      13.57914     13.61517     13.85658         0.052270      0.363533      0.095505
O       1.80010      1.84944      5.07150         0.271931      0.659295      0.504459
O       2.02878     13.65198      5.09525        -0.549039      0.073843      0.862355
O      13.70444      1.98897      5.04507        -0.196846     -0.159241      1.316375
O      13.60353     13.65754      5.02616         0.035663     -0.148707      0.203638
O       1.95533      1.84388      9.42912        -0.089415      0.426388     -0.270164
O       1.76837     13.70362      9.46108         0.294268     -0.172089      0.113562
O      13.53514      1.85423      9.44101         0.084956      0.169782      0.956368
O      13.64796     13.58441      9.49465         0.020345      0.244130      0.441445
O       1.85267      5.91645      0.61321        -0.031876     -0.125370      0.124274
O       1.96362      5.81833     13.91239        -0.144095     -0.015135      0.268298
O      13.50718      5.70401      0.57634         0.470252      0.122755      0.050845
O      13.51845      5.76113     13.91206        -0.133929      0.212767      0.085968
O       1.85749      5.92443      5.15875         0.206774     -0.092751      0.487535
O      13.56882      5.75602      5.13211         0.185057      0.587909      1.311859
O       1.88415      5.88343      9.52364         0.284913     -0.549572      0.599661
O      13.74148      5.85504      9.61474        -0.368911      0.042274     -0.614873
O       1.85682      9.78694      0.61261         0.345641     -0.176432      1.194170
O       1.83613      9.80532     13.83914         0.362178      0.030389      0.581932
O      13.54049      9.70679      0.64909         0.339733      0.009574     -0.432365
O      13.66679      9.73546     13.86802        -0.206490     -0.234734     -0.010250
O       2.02760      9.72786      5.14643        -0.537038     -0.037686      0.134428
O      13.74821      9.55321      5.10380        -0.131175      0.520114     -0.960087
O       1.90054      9.78999      9.48438         0.253917     -0.299040      0.303822
O      13.61074      9.73060      9.50337         0.020472      0.017841     -0.106569
O       5.82575      2.03253      0.72879         0.246928     -0.334465      1.396900
O       5.77413      1.94924     13.82649         0.029362      0.026072      0.280905
O       5.86758     13.62399      0.65642         0.014272     -0.327922      0.790141
O       5.69540     13.71633     13.90639         0.328837     -0.218259      0.794668
O       5.78749      1.89945      5.13255         0.270918     -0.040528      0.620432
O       5.86947     13.58022      5.15604         0.016646      0.154226      0.378869
O       5.90526      1.89364      9.51065        -0.313713      0.262362      0.317946
O       5.85634     13.58160      9.46509         0.035762      0.373412      1.352981
O       5.83341      5.73382      0.79066        -0.113859     -0.068444     -0.245634
O       5.73173      5.96671     13.99721         0.232586     -0.259659      0.320069
O       5.53409      5.85663      5.06322         0.351709     -0.233234      0.885099
O       5.83393      5.90685      9.49297        -0.230999     -0.341798     -0.478076
O       5.84383      9.78020      0.77331        -0.001173     -0.055012      0.271524
O       5.71048      9.74169     13.93872         0.695919     -0.021066      0.523590
O       5.81174      9.78191      5.00580        -0.219202      0.179836      0.541636
O       5.72302      9.75651      9.48454         0.123818      0.138653      0.756273
O       9.64141      1.96387      0.74673         0.336986     -0.380293      0.889423
O       9.66458      1.84108     13.80256         0.225166      0.132740      1.215242
O       9.59299     13.79616      0.63778         0.495099     -0.522559      0.566777
O       9.64744     13.69237     13.93745         0.235245     -0.360497     -0.050804
O       9.76649      1.96735      5.10137        -0.282668      0.075831      0.639848
O       9.73040     13.56497      5.12614         0.462646      0.298888      0.071844
O       9.78423      1.96275      9.46581         0.036297     -0.471019     -0.026569
O       9.57589     13.62828      9.45929         0.593146     -0.167260      0.070420
O       9.60433      5.78825      0.68422         0.048202     -0.166452      0.737340
O       9.66948      5.82095     13.96471         0.042898      0.043099     -1.346595
O       9.76916      5.82433      5.14147        -0.163046      0.028782      0.203174
O       9.64148      5.98346      9.50611         0.232497     -0.053233     -0.640561
O       9.60612      9.72821      0.63998         0.290793     -0.251702      0.885928
O       9.68955      9.78917     13.92214        -0.060360     -0.273286      0.682433
O       9.67459      9.75696      5.00874         0.151363      0.250819      1.103012
O       9.63215      9.73372      9.48576         0.322065     -0.112009      0.218640
O       3.82921      1.88828      2.83688         0.299319      0.032710      0.398661
O       3.84594      2.00910     15.90568         0.123080     -0.033440      0.567165
O       3.84983     13.62429      2.82213         0.503047     -0.145890      0.026778
O       3.86350     13.55691     16.05990         0.214013      0.119754      0.442992
O      15.54067      2.00032      2.83546         0.252413     -0.194599     -0.064169
O      15.58867      1.97323     16.02742        -0.770542     -0.199606      0.752727
O      15.57084     13.54865      2.79401         0.255010      0.228584      0.432319
O       0.00822     13.68286     15.98136        -0.905091     -0.323994      0.338490
O       3.85460      1.99139      7.18807        -0.049439     -0.267121      0.266002
O       3.85940     13.66082      7.28887        -0.019937     -0.091215     -0.057761
O      15.56725      1.96664      7.31009        -0.362088     -0.053260     -0.497800
O      15.54216     13.58078      7.22066         0.095510      0.565494     -0.081747
O       3.91438      1.94075     11.53682        -0.826779     -0.021620      0.389961
O       3.82417     13.66610     11.65966         0.293615      0.053195     -0.184144
O      15.57920      1.99240     11.63545        -0.355482     -0.299859     -0.299895
O      15.57323     13.66510     11.63100        -0.084908     -0.454940      0.292791
O       3.83038      5.88106      2.76061        -0.171632     -0.084721      0.474217
O       3.83837      5.84228     16.12140         0.123716     -0.054798      0.303649
O       0.02692      5.79099      2.76124        -0.901977     -0.027604      0.160390
O      15.50227      5.90672     16.04361         0.059988     -0.352040      0.255082
O       3.85510      5.84777      7.30509        -0.678018      0.071107      0.251621
O      15.55030      5.88800      7.39818         0.014644     -0.274479     -0.681177
O       3.86981      5.86230     11.64147         0.275069     -0.282780     -0.021348
O      15.57552      5.83856     11.71668        -0.187365     -0.291493      0.298288
O       3.91697      9.75533      2.84181        -0.858447      0.072683     -0.111899
O       3.88837      9.76341     16.05447        -0.343975     -0.049194      0.161531
O      15.53087      9.69494      2.78575         1.253635      0.467877      0.190002
O      15.54814      9.71322     15.95778         0.224330      0.143640      0.449639
O       3.83687      9.75442      7.28496         0.425520     -0.137371     -0.377061
O      15.57623      9.69587      7.24690        -0.151763      0.286549     -0.070839
O       3.83804      9.74489     11.61719         0.316116      0.040728      0.140562
O      15.56661      9.67456     11.63407         0.130898      0.709894      0.098324
O       7.79504      1.86908      2.95595        -0.012645      0.376498     -0.078513
O       7.76477      1.82337     15.96982        -0.366167      0.132027      0.280975
O       7.83202     13.59950      2.80445        -0.407369     -0.077304      0.234277
O       7.76525     13.68413     16.07842        -0.293318     -0.279742      0.068619
O       7.76373      2.01318      7.34636         0.055513     -0.402303     -0.856159
O       7.84979     13.59092      7.29627        -0.297579      0.198244     -0.153620
O       7.84921      1.94706     11.60252        -0.227948     -0.157562      0.292726
O       7.75456     13.60782     11.59583         0.168661     -0.007315      0.563738
O       7.73401      5.80300      3.03518         0.685913     -0.650887     -0.382677
O       7.71777      5.81228     16.12351         0.359493      0.103508      0.065949
O       7.69603      5.78782      7.25338         0.368475      0.553210     -0.360303
O       7.76879      5.77553     11.63555         0.068866      0.842839      0.072591
O       7.79844      9.82193      2.85829         0.376416     -0.358251      0.100825
O       7.79461      9.83992     16.08063        -0.681148     -0.816057      0.207767
O       7.77809      9.78926      7.24715        -0.248453      0.023961     -0.122077
O       7.70735      9.82199     11.58873         0.748854     -0.364374      0.394744
O      11.66496      1.89225      2.92255         0.345076     -0.135860     -0.015981
O      11.63715      1.93423     16.08576        -0.378959     -0.109577      0.018299
O      11.70823     13.63359      2.83633        -0.315046      0.001312     -0.105302
O      11.70296     13.54170     16.10238        -0.521854      0.501043     -0.136669
O      11.63951      2.06778      7.30869         0.385028     -0.750294     -0.555616
O      11.75279     13.60931      7.31404        -0.504586      0.173026     -0.527326
O      11.66895      1.99634     11.68958         0.106613     -0.875182     -0.084104
O      11.65018     13.58463     11.59113         0.004801      0.303590      0.051597
O      11.70158      5.74950      2.85291         0.035514      0.507471     -0.140003
O      11.58709      5.83045     16.07823         0.610895     -0.181066     -0.023151
O      11.63206      5.81945      7.33176        -0.074089      0.521703     -0.136771
O      11.63331      5.81781     11.68752         0.636520      0.574707      0.203550
O      11.64915      9.76435      2.80253         0.172712     -0.447232      0.036728
O      11.67828      9.70541     15.98272        -0.121435     -0.153846      0.256132
O      11.69117      9.58925      7.13757        -0.191971      1.139354      0.091567
O      11.66776      9.73000     11.58787        -0.114567     -0.378634      0.106949
O       1.92050      3.93163      2.77981         0.137707     -0.637369      0.363481
O       1.85263      3.98043     16.17880         0.122344     -0.778056     -0.324607
O       1.88337     15.58450      2.82526        -0.245312     -0.122092      0.062104
O       1.91520     15.58234     16.03399         0.263634      0.390619      0.240395
O      13.59657      3.92249      2.84400         0.301073     -0.942214      0.024205
O      13.60311      3.86470     15.96767        -0.028622     -0.067333      0.582813
O      13.68990     15.57658      2.64358        -0.022695     -0.149314      0.697144
O      13.49788     15.55583     16.17404         0.492278      0.039842     -0.235858
O       1.90154      3.89849      7.26010         0.133027      0.111519     -0.187895
O       1.87045      0.01587      7.23960         0.055306      0.004730      0.006871
O      13.55140      3.92453      7.20796         0.545545     -0.445606      0.498163
O      13.62092     15.58548      7.09956        -0.089751      0.363711      0.389729
O       1.88764      3.86542     11.68927         0.394688     -0.425721     -0.232784
O       1.83232     15.59653     11.58454         0.580676      0.463020      0.216002
O      13.56378      3.85117     11.61361         0.311626      0.259485      0.357837
O      13.63112     15.58904     11.68485        -0.313148      0.237723     -0.209063
O       1.88188      7.85149      2.75298         0.339667      0.143123      0.377601
O       1.91553      7.81326     15.96109         0.002286      0.613441      0.492416
O      13.76085      7.77528      2.75007        -0.821013     -0.657767      0.286648
O      13.58390      7.76482     15.97930        -0.206589      0.053470      0.317213
O       1.86414      7.79964      7.30963         0.518127      0.231354     -0.033341
O      13.62513      7.82120      7.32705         0.011362     -0.553550     -0.126962
O       1.87279      7.75109     11.57882         0.314773      0.665376      0.567848
O      13.69871      7.81954     11.67117        -0.732572     -0.606324      0.315128
O       1.91117     11.69943      2.85470         0.054803     -0.888987     -0.140221
O       1.90024     11.66623     16.13713         0.079029     -0.014405     -0.399933
O      13.68429     11.59920      2.80059        -0.543950      0.414799      0.383940
O      13.59203     11.67900     15.89533         0.501540     -0.316341      0.570935
O       1.87149     11.69112      7.33767         0.058197      0.021813     -0.428087
O      13.66021     11.68896      7.21948        -0.247759     -0.503742     -0.428462
O       1.94453     11.66038     11.55661        -0.315771      0.442634      0.359175
O      13.62526     11.69066     11.66810         0.150966     -0.326080     -0.105983
O       5.76768      3.81857      2.96995         0.112482     -0.151870      0.128379
O       5.82432      3.84642     16.00280        -0.032939      0.086331      0.273720
O       5.87109     15.51256      2.80170        -0.067521      0.296921      0.373591
O       5.72960     15.55995     16.06598         0.145035      0.577246      0.061608
O       5.78238      3.91206      7.25199        -0.179440     -0.539330      0.122668
O       5.84681     15.56072      7.25416        -0.024679      0.620659      0.004625
O       5.84810      3.88584     11.62000        -0.193958      0.104307      0.186916
O       5.86681      0.02020     11.69285        -0.230281     -0.348877      0.013736
O       5.88915      7.77448      2.85095        -0.385511      0.505886      0.291939
O       5.76738      7.75587     16.11101         0.584765      1.126481      0.438737
O       5.81926      7.84416      7.19544        -0.322173     -0.062013      0.199973
O       5.83286      7.81511     11.56479        -0.037567      0.076555      0.470250
O       5.86819     11.70443      2.91986        -0.151124     -0.113371     -0.121462
O       5.83528     11.66215     16.10118         0.074979      0.433086      0.066070
O       5.85764     11.67831      7.26875        -0.411387     -0.077449     -0.036128
O       5.88249     11.74204     11.70869        -0.810662     -0.243315      0.021575
O       9.81655      3.85810      2.88039        -0.813172     -0.599332      0.287160
O       9.63222      3.82203     15.96705         0.143841      0.021247      0.167328
O       9.71272     15.54329      2.84120         0.204443     -0.006308      0.387014
O       9.71450     15.55288     16.04814         0.316555      0.278761      0.286107
O       9.65984      3.93400      7.23289         0.139797     -0.278360      0.194381
O       9.77369      0.01456      7.16848         0.113758      0.003149      0.148838
O       9.76395      3.90991     11.44667        -0.091265     -0.150977      0.884145
O       9.66634     15.47814     11.63576         0.495625      1.058352     -0.073651
O       9.74178      7.69269      2.83672        -0.075135      0.901999     -0.103494
O       9.66393      7.77042     16.00549         0.021901      0.346623      0.544883
O       9.66206      7.85791      7.18589        -0.066957     -0.813129      0.266018
O       9.73355      7.81118     11.64212        -0.174994      0.127960      0.369682
O       9.77071     11.72070      2.72731        -0.030707     -0.486907      0.299227
O       9.67015     11.65571     16.06643         0.369153      0.452701      0.282437
O       9.73841     11.68403      7.21430         0.437905     -0.037453      0.237472
O       9.71805     11.64148     11.60103        -0.349879      0.281961      0.083400
