  # total energy = -7869.23284120 
CRSYTAL
PRIMVEC
    15.010000000000000    0.0000000000000000    0.0000000000000000
     0.0000000000000000   15.010000000000000    0.0000000000000000
     0.0000000000000000    0.0000000000000000    16.400000000000000
PRESSURE
19.2223 19.1362 12.1701 -0.012098 -0.012674 0.016646
PRIMCOORD
320 1
Pb       3.68301      3.74924      4.11681         0.238901      0.096089     -0.021777
Pb       3.74476      3.71543      0.03851         0.209072      0.306014      0.214616
Pb       3.77608     14.97401      4.10615        -0.318757     -0.324333     -0.215968
Pb       3.65854     14.97896      0.03012         0.576466      0.054722     -0.114837
Pb       0.01491      3.72537      4.08579        -0.079677      0.392741      0.155085
Pb       0.01720      3.83931      0.00004        -0.519975     -0.420742      0.632089
Pb       0.04412     14.96124      4.01792         0.087776     -0.265415      0.983097
Pb      14.99443      0.02250     16.36339        -0.099504     -0.080232      0.369755
Pb       3.84199      3.77335      8.15656        -0.301849     -0.534897      0.708825
Pb       3.76010     14.89734      8.21390        -0.226017      1.075280      0.632464
Pb       0.03061      3.72171      8.13177         0.082108      0.028876      0.313983
Pb       0.08190      0.02301      8.24378        -0.377430      0.129394     -0.109298
Pb       3.71744      3.73189     12.33467        -0.200786      0.137156      0.288484
Pb       3.77584     14.96643     12.29134        -0.398550      0.026389      0.710861
Pb      14.99718      3.76167     12.24837        -0.124024      0.081592      0.298015
Pb      14.97148     14.99869     12.30940        -0.153961      0.185679      0.230227
Pb       3.77134      7.44286      4.13131        -0.595134      0.164784     -0.035991
Pb       3.68880      7.48558     16.35385         0.263665      0.000848      0.329752
Pb      14.87876      7.49657      4.07654         0.647370     -0.066827      0.232232
Pb      14.97260      7.53425     16.35117         0.190244     -0.028455      0.519137
Pb       3.75168      7.43117      8.25830         0.050753     -0.021301      0.222341
Pb      14.92276      7.45037      8.13330         0.797881      0.063420      0.359568
Pb       3.75043      7.44637     12.34350         0.385518      0.347029      0.152600
Pb      14.99327      7.54905     12.29896         0.432353     -0.281524      0.844253
Pb       3.72131     11.32359      4.03302        -0.171920     -0.094119      0.197275
Pb       3.70723     11.36302     16.39515         0.252820     -0.785012      0.037675
Pb      14.89352     11.33456      4.07748         0.858459     -0.415524      0.308112
Pb      14.92149     11.15311     16.36106         0.328569      0.177181      0.101094
Pb       3.73173     11.27495      8.22249        -0.561847     -0.436765      0.971542
Pb      14.91124     11.25895      8.20187         0.476974     -0.138159      0.509797
Pb       3.69939     11.22511     12.34442        -0.004220     -0.416085     -0.032389
Pb      14.94114     11.22990     12.31690         0.197073     -0.319701      0.084104
Pb       7.46787      3.63419      4.20285         0.605546      0.817332     -0.541471
Pb       7.46741      3.69013      0.04452         0.406155      0.598073     -0.216944
Pb       7.47907      0.05422      4.12030         0.146758     -0.775703     -0.395090
Pb       7.57741      0.08121      0.06432        -0.278920     -0.813226     -0.246072
Pb       7.53057      3.75707      8.18417        -0.312423      0.016764      0.453373
Pb       7.52013     14.83797      8.22054        -0.446966      0.673040      0.818350
Pb       7.59587      3.68247     12.30468        -0.124466      0.417590      0.309993
Pb       7.49129      0.04163     12.35692         0.201515     -0.171632     -0.049510
Pb       7.46823      7.50608      4.19938         0.500026      0.143218     -0.281933
Pb       7.44830      7.49397      0.03354         0.028863     -0.298647     -0.509293
Pb       7.44404      7.54451      8.11076        -0.255240     -0.702265      1.094017
Pb       7.43477      7.44045     12.30194         0.215355     -0.212934      0.674945
Pb       7.36744     11.24307      4.08944         0.400406      0.197845     -0.317105
Pb       7.47374     11.19878     16.38179         0.170416      0.618785      0.539344
Pb       7.38425     11.19298      8.27005         0.595660      0.295539      0.359971
Pb       7.45618     11.19126     12.41931         0.240576      0.159080     -0.332485
Pb      11.33781      3.68420      4.08037        -0.467835      0.725859      0.407998
Pb      11.19374      3.69673      0.00104         0.525831      0.559945      0.105860
Pb      11.16983      0.03669      4.09066         0.224724     -0.097477      0.253724
Pb      11.29266      0.05644     16.38338        -0.411562     -0.374708      0.268806
Pb      11.24066      3.71224      8.17588         0.031771      0.232848      0.354043
Pb      11.23963     14.96058      8.17948         0.071186      0.050642      0.448347
Pb      11.31102      3.75178     12.33436        -0.599782     -0.065912      0.055557
Pb      11.27368     14.94622     12.24582         0.001807      0.155644      0.338132
Pb      11.19625      7.47823      4.04683         0.273469      0.020856      0.964897
Pb      11.27774      7.52201     16.37011        -0.414555     -0.389475      0.368883
Pb      11.30834      7.53273      8.16304        -0.450892     -0.309221      0.388228
Pb      11.29841      7.57287     12.32853        -0.946265     -0.484072      0.388439
Pb      11.18008     11.26826      4.08757        -0.465407     -0.475435      0.232281
Pb      11.25392     11.30556     16.38064        -0.358768     -0.127561      0.082592
Pb      11.20393     11.17114      8.11578         0.085938      0.376203      1.034340
Pb      11.31275     11.18362     12.31559        -0.315331      0.220509      0.018077
Ti       1.87171      1.85644      2.09491         0.893959     -0.101098     -0.055497
Ti       1.85332      1.88474     14.42996         0.028936     -0.695917     -0.306458
Ti       1.81359     13.07946      2.02545         0.255567      0.353080      0.117276
Ti       1.84890     13.13306     14.39366         0.255312     -0.159190      1.520743
Ti      13.18219      1.79720      2.23670        -0.971193      0.906457     -1.057541
Ti      13.13107      1.86495     14.48957        -0.548562      0.178038     -1.036914
Ti      13.10886     13.08647      2.14355         0.223777      0.547531     -0.189865
Ti      13.15389     13.12825     14.49498        -0.925981     -0.636714     -0.766600
Ti       1.88208      1.81755      6.15579        -0.121423      0.097238      0.647660
Ti       1.85108     13.08707      6.28295        -0.883913      0.582397     -1.250788
Ti      13.07902      1.83044      6.24063         0.521792     -0.116396      1.084488
Ti      13.07453     13.11555      6.25682         0.912348      0.487992     -0.316892
Ti       1.83141      1.90028     10.38998         0.764395     -0.173290     -0.661853
Ti       1.79325     13.13035     10.39383         0.287610     -1.509019      0.235671
Ti      13.08316      1.89854     10.29784         0.251204     -0.410887      0.124083
Ti      13.09499     13.10695     10.31017        -0.632214     -0.134151      0.365710
Ti       1.90888      5.62657      2.14176         0.067160     -0.083137      1.188535
Ti       1.88248      5.58043     14.43829        -0.041068      0.725091     -0.111043
Ti      13.13903      5.63553      2.17896        -0.853718     -0.963397     -0.606777
Ti      13.16314      5.57937     14.43770        -1.199562     -0.245579      0.922710
Ti       1.95430      5.57944      6.25253        -0.978300      0.277481     -0.176706
Ti      13.14133      5.61314      6.28592        -0.135501     -0.742462     -1.131735
Ti       1.84802      5.65787     10.35938        -0.057151     -0.573770     -0.718482
Ti      13.08091      5.61538     10.35976         1.010604     -0.896467     -0.714702
Ti       1.89448      9.33813      2.14236        -1.107953      0.313994     -0.332903
Ti       1.88104      9.37020     14.52753        -0.278467      0.168876     -0.970337
Ti      13.09464      9.37068      2.12812         0.378194     -0.867872     -0.285946
Ti      13.04482      9.31023     14.48134         0.497387      1.360719     -1.018258
Ti       1.89700      9.39225      6.25059        -1.325368     -0.749527     -0.696506
Ti      13.14921      9.39857      6.16751        -0.658811     -0.886338      0.098590
Ti       1.89895      9.31236     10.35500        -0.149886      1.513930      0.457127
Ti      13.14054      9.27636     10.38337        -0.240544      1.312486      0.389028
Ti       5.61996      1.89114      2.10509        -0.183758     -0.003202      0.205582
Ti       5.63273      1.86614     14.46827         0.329979     -0.453057      0.280743
Ti       5.53141     13.15825      2.01886         1.512990     -0.714524      0.173977
Ti       5.63565     13.13754     14.46432         0.296889      0.257803      0.220523
Ti       5.57688      1.82500      6.19537         1.131046      0.309266      1.489295
Ti       5.55063     13.08848      6.31994         0.123100      0.377440     -1.945797
Ti       5.53516      1.83078     10.41903         1.142221     -0.215131     -1.053796
Ti       5.57317     13.06761     10.38046         0.208205     -0.254103      0.818988
Ti       5.71086      5.66185      2.11967        -0.368471     -1.215290      0.185395
Ti       5.62565      5.54584     14.42529         0.687493      1.128550      0.031260
Ti       5.67555      5.59218      6.15161        -0.248278      0.612374      1.629415
Ti       5.60335      5.47945     10.37533         0.622617      2.751776      0.124951
Ti       5.54103      9.31160      2.16797         0.673936      1.488706     -0.038090
Ti       5.62540      9.35387     14.45693        -0.843618     -0.251929      0.296617
Ti       5.50441      9.40684      6.22886         0.780894     -0.976305      1.019048
Ti       5.67194      9.34019     10.33475        -1.418088     -0.585089      2.153591
Ti       9.38193      1.91569      2.09080         0.248592     -0.156733      0.145638
Ti       9.38714      1.89145     14.40831         0.137264      0.176129      0.017019
Ti       9.36277     13.13965      2.17253        -0.749964     -0.205541      0.550615
Ti       9.38279     13.13854     14.40437         0.077368      0.130138      0.514285
Ti       9.29355      1.86868      6.27167         0.648587      0.073747      0.452066
Ti       9.30460     13.09948      6.26820         0.443896     -0.635789      0.007730
Ti       9.37585      1.85034     10.24250        -0.208889      0.319875      0.641222
Ti       9.32068     13.08772     10.43531        -0.034929     -0.781894     -0.029255
Ti       9.37799      5.64439      2.08941         0.217183     -0.749062      0.837213
Ti       9.41112      5.68566     14.48678        -1.143859     -0.420225     -0.213519
Ti       9.38849      5.63998      6.25963         0.127310     -0.826089     -0.469948
Ti       9.34891      5.59372     10.37974         0.538426      0.968229      1.036303
Ti       9.33686      9.34924      2.11608        -0.178320      0.997092      0.957165
Ti       9.28829      9.38579     14.46373         0.704831     -0.289130      0.231427
Ti       9.31329      9.34921      6.31283         0.111203      0.877145     -1.611053
Ti       9.33366      9.32288     10.30934         0.812572     -0.014601      0.497329
O       1.99186      1.81933      0.29560        -0.397211      0.078188     -0.403831
O       1.81003      1.91625     12.62321        -0.124590     -0.185447      0.201696
O       1.71876     13.16138      0.23795         0.401989      0.000262      0.158290
O       1.97616     13.04250     12.67009        -0.235776      0.283152     -1.880950
O      13.05359      1.79680      0.44755         0.109779     -0.049942     -0.438556
O      13.06218      1.86791     12.66611         0.378276     -0.146987     -0.162327
O      13.14250     13.11705      0.35267         0.185326      0.025408     -0.319740
O      13.03247     13.06328     12.68483        -0.010098      0.363633     -0.485960
O       1.91745      1.89258      4.35110        -0.245454     -0.291549      0.200213
O       2.00059     13.13074      4.46307        -0.457174      0.081387     -0.111984
O      13.19358      1.87825      4.48639        -0.059881     -0.218251     -1.256092
O      13.18238     12.97122      4.43877        -0.500558      0.423722     -0.028690
O       1.92147      1.80946      8.59914        -0.073196      0.080626     -0.218517
O       1.69712     13.08227      8.62154         0.246832      0.179717     -1.309151
O      13.07669      1.86646      8.52050         0.242463     -0.063578     -0.463937
O      13.10080     13.08899      8.53569         0.448406      0.153717     -0.713440
O       1.95911      5.61064      0.41189        -0.316023     -0.113686     -1.631969
O       1.77121      5.59571     12.65987         0.608671     -0.135543     -0.000757
O      13.00380      5.65686      0.40193         0.445314     -0.039395     -0.841497
O      13.15075      5.47393     12.68917         0.015932      0.260114     -0.700461
O       1.89319      5.44250      4.42348         0.140164      0.497079      0.091784
O      13.09523      5.61159      4.44110         0.244207     -0.244453      0.338630
O       1.78809      5.56350      8.52525         0.387605      0.356309      0.082870
O      13.20902      5.61644      8.53811        -0.146196      0.149924     -0.354640
O       1.86542      9.30203      0.30743         0.120107      0.126356      0.045301
O       1.86795      9.33146     12.73099        -0.062537      0.149474     -0.489586
O      13.16848      9.37209      0.30553        -0.482685     -0.463545     -0.120911
O      13.11816      9.41516     12.62253         0.060434     -0.179766      0.476744
O       1.95117      9.35731      4.44484        -0.336634      0.038674      0.260906
O      13.15929      9.30787      4.38190         0.127154      0.457470     -0.267791
O       1.80329      9.29684      8.60551         0.194271      0.030905     -1.330173
O      13.05976      9.24873      8.60913         0.275272      0.049343     -1.011864
O       5.62168      1.76951      0.32711        -0.263038      0.329897     -0.486103
O       5.69465      1.88837     12.68423         0.004807      0.119171     -1.088962
O       5.64878     13.28800      0.24249        -0.208168     -0.660544      0.136205
O       5.50714     13.07374     12.64845         0.226288      0.048123     -0.071360
O       5.69136      1.86529      4.44314        -0.059400     -0.309927     -1.762738
O       5.43029     13.03400      4.46453         0.398427      0.734632      0.749919
O       5.47491      1.84134      8.62983         0.422452     -0.231796     -0.523548
O       5.65557     13.11403      8.58995        -0.237843     -0.151926     -1.283040
O       5.65146      5.59712      0.34718         0.113816      0.536419     -0.412190
O       5.47547      5.41337     12.63421         0.648745      0.384916      0.057861
O       5.63977      5.64710      4.40800         0.134225     -0.267598     -0.652496
O       5.64021      5.67066      8.59042        -0.071965     -0.121072     -0.569528
O       5.48565      9.24339      0.42046         0.564567      0.247610     -1.236024
O       5.65855      9.52137     12.71448        -0.074429     -0.491363     -1.034117
O       5.47112      9.40454      4.48117         0.266744     -0.148548     -0.886044
O       5.60925      9.30339      8.61305        -0.194982      0.250187     -1.939695
O       9.45732      1.83094      0.28426        -0.050312      0.210104      0.402355
O       9.31845      1.90130     12.60969         0.271964     -0.399193     -0.086620
O       9.44516     13.09757      0.44824        -0.208395      0.146028     -1.459352
O       9.33248     13.02023     12.63444         0.283899      0.615809     -0.655373
O       9.34362      1.80078      4.47985        -0.364791     -0.066417     -0.656263
O       9.38690     13.20516      4.49933         0.020692     -0.090238     -0.829588
O       9.29641      1.88113      8.42500         0.285185     -0.129105      0.938226
O       9.30688     13.03818      8.63605        -0.223601      0.147129     -0.986005
O       9.38288      5.62986      0.31923        -0.101926     -0.082103     -0.041095
O       9.39307      5.69823     12.72159         0.111498     -0.110948     -1.182326
O       9.32187      5.50553      4.49730         0.153657      0.688466     -0.397579
O       9.23758      5.58115      8.65479         0.454061      0.022464     -2.093535
O       9.32870      9.36745      0.35556         0.019167      0.219367     -0.264180
O       9.28405      9.19157     12.72907         0.107826      0.548985     -1.478597
O       9.26601      9.39339      4.49284         0.205909     -0.399327      0.103964
O       9.41718      9.49783      8.50288        -0.269067     -0.713503     -0.022078
O       3.76447      2.15443      2.44035         0.294399     -0.929938     -0.370957
O       3.77924      1.88991     14.60357        -1.111947     -0.041282      0.436151
O       3.69345     13.00732      2.23420        -0.566147     -0.191693      0.222987
O       3.75531     13.16540     14.83906        -0.450375      0.093620     -0.368576
O       0.04925      1.60841      2.35852        -0.491212      0.600159      0.158281
O      14.93160      1.91565     14.84635         1.636378     -0.149860     -0.078588
O       0.00097     13.21978      2.44218        -0.461992     -0.116406      0.279208
O      14.97696     13.06575     14.59143         0.532393     -0.110043      0.372139
O       3.81236      1.75449      6.47010        -1.774393     -0.222150      0.143204
O       3.67895     13.16094      6.60138         1.188104     -0.008316      0.586641
O       0.03395      1.85612      6.53820        -0.126694      0.547037     -0.101202
O      14.99127     13.01917      6.43169        -0.001769     -0.236525      0.485404
O       3.71821      2.01876     10.71907        -0.044829     -0.291380      0.292653
O       3.69680     12.90012     10.53511         0.013244      0.053772      0.194929
O       0.00610      1.68780     10.62425        -0.854141      0.310789     -0.051778
O      14.92944     13.20595     10.76220         0.231457      0.344352     -0.056626
O       3.84906      5.44973      2.41029        -1.073145      0.095233      0.257851
O       3.74006      5.64707     14.79957        -0.112094     -0.489931     -0.299721
O      14.96620      5.70938      2.34772         1.527235      0.117102      0.434512
O      15.00698      5.62026     14.82979        -0.187421     -0.280299     -0.026591
O       3.80794      5.61829      6.58688        -0.304490      0.745628     -0.218699
O       0.01794      5.52135      6.47434         0.013953     -0.653639      0.110720
O       3.74590      5.54802     10.70814        -0.232642     -0.311143     -0.312116
O       0.01486      5.71598     10.73159        -0.240380     -0.012703     -0.356453
O       3.70993      9.51347      2.40817         0.117295     -0.487029      0.261613
O       3.74725      9.30021     14.67694         0.078731      0.073952      0.540915
O      15.00233      9.07418      2.28146        -0.265101      0.502723      0.591399
O      14.97779      9.34440     14.70124        -0.196222      0.172633      0.335458
O       3.67560      9.22117      6.68567         0.903484      0.341654     -0.076753
O      14.99664      9.47751      6.51495         0.118153     -0.313210      0.050795
O       3.75747      9.49057     10.69099         0.209678     -0.120708     -0.154244
O       0.01228      9.23084     10.69855        -0.775458     -0.223965     -0.192313
O       7.51750      1.62238      2.32179        -0.622797      0.050221      0.438561
O       7.54329      1.82752     14.86597        -0.602691      0.456192     -0.449041
O       7.42293     13.13541      2.37812         0.830087      0.699457      0.520146
O       7.53332     13.12103     14.75894        -0.638167      0.090219     -0.019282
O       7.48266      2.03657      6.51162        -0.969678     -0.604981      0.004660
O       7.44528     12.93757      6.53090        -0.037173      0.112715      0.122399
O       7.55510      1.71760     10.63726        -1.307110      0.122866     -0.125273
O       7.43914     13.27606     10.68623         0.133809      0.004097      0.084444
O       7.55077      5.81390      2.49513         0.109204      0.085467     -0.108156
O       7.49868      5.59825     14.70423         0.108285      0.025558      0.304226
O       7.50327      5.59164      6.58138        -0.502889     -0.227616     -0.160202
O       7.51555      5.69173     10.72030        -0.667210     -0.030900      0.094917
O       7.45539      9.27447      2.47915         0.190339      0.077500     -0.001229
O       7.45233      9.35480     14.78855         0.256885      0.203057      0.610389
O       7.42400      9.52189      6.63497        -0.075213     -0.318946     -0.516838
O       7.50494      9.17907     10.70228         0.547147      0.206487     -0.440458
O      11.23828      1.97802      2.50412         0.331216     -0.358513     -0.026879
O      11.26619      1.82002     14.69800        -0.342963      0.208008      0.358025
O      11.30986     12.95661      2.40393        -1.201751      0.336685      0.489429
O      11.26914     13.08711     14.75175        -0.885274      0.083667      0.193805
O      11.18881      1.79121      6.53245         0.588211     -0.513302     -0.108010
O      11.25740     13.16401      6.62840        -0.910784      0.253611     -0.419960
O      11.23835      2.11790     10.54704        -0.249884     -0.810989      0.127845
O      11.20211     12.93259     10.57847         0.408908      0.391731      0.469101
O      11.22344      5.40795      2.43649        -0.225267      0.064244      0.270577
O      11.24010      5.62573     14.75051         1.196053     -0.034347      0.184474
O      11.24799      5.66407      6.58974         0.130386      0.266521      0.139118
O      11.30111      5.47762     10.61750        -0.922062      0.024199      0.151018
O      11.23948      9.42908      2.41986         0.026688      0.407296      0.224037
O      11.18498      9.43312     14.66933         0.491812     -0.202302      0.415043
O      11.24671      9.21724      6.46855         0.395612      0.172088      0.207450
O      11.25062      9.37162     10.73748         0.194394      0.482506     -0.349707
O       1.75537      3.70793      2.35579        -0.431999      0.564963      0.202320
O       1.83908      3.70854     14.79024         0.080779      0.581138      0.085371
O       2.00698     14.96681      2.35379         0.378001      0.263741      0.349790
O       1.67511     15.00352     14.60921         0.669482      0.528480      0.301959
O      13.24569      3.68044      2.45058         0.263530      0.273421      0.270336
O      13.13383      3.71521     14.87613        -0.313439      0.634571     -0.161450
O      13.03501     14.97080      2.52368        -0.167915     -0.738679      0.221730
O      13.09097     14.98799     14.78914         0.469832      0.066944     -0.124588
O       2.08615      3.65696      6.53600        -0.751826      0.298060     -0.046727
O       1.82263     14.97925      6.60070         0.194247      0.104780     -0.149682
O      13.02698      3.68543      6.57997         0.351821      0.572472     -0.184422
O      13.26127     14.97110      6.54260        -0.556224     -0.014118      0.046645
O       1.78357      3.80469     10.63119        -0.140849     -1.378030      0.083082
O       2.00015     14.93763     10.67132        -0.095427      1.297582      0.220262
O      13.19072      3.75062     10.63291         0.933596     -0.554237      0.065805
O      12.93862      0.01027     10.54573        -0.000055     -0.341446      0.436400
O       2.04238      7.48060      2.42381         0.191685     -0.500268      0.392434
O       1.79291      7.43984     14.72378         0.373790      0.287117      0.325731
O      12.93490      7.45765      2.47556         0.161376      0.581654     -0.045887
O      13.04351      7.48421     14.65793         0.377452     -0.631868      0.328911
O       1.76170      7.43205      6.46619         0.301087      0.450141      0.110660
O      13.20975      7.46007      6.46693         0.105290      0.841957      0.301358
O       2.07408      7.48386     10.69869        -0.534908     -0.178611      0.002552
O      13.09755      7.39415     10.74435        -0.193389      1.816531     -0.063118
O       1.73929     11.23403      2.36416        -0.290290     -0.141204      0.101655
O       1.93718     11.28364     14.77539        -0.290987     -0.851744      0.023021
O      13.22287     11.18254      2.36289         0.542361      0.762080      0.322742
O      13.08649     11.19390     14.82473         0.217531      0.686697     -0.222443
O       1.99008     11.26207      6.60904        -0.269418     -0.991060     -0.019762
O      13.08055     11.21098      6.55792        -0.319782      0.124625     -0.097979
O       1.64326     11.20485     10.62847         0.356628      0.236583      0.238065
O      13.19049     11.23877     10.60258         0.283182     -0.770567      0.036534
O       5.89732      3.76084      2.28076         0.079019     -0.707561      0.584474
O       5.72565      3.77179     14.86689        -0.689220     -1.710723     -0.073201
O       5.38231     14.97818      2.32021         0.146311      1.032309      0.873403
O       5.65446     15.00818     14.67270         0.006197      0.199260     -0.099451
O       5.53963      3.74617      6.47345         0.256699     -0.139646      0.095619
O       5.64007     14.95487      6.51550         0.607064      0.192378      0.162819
O       5.74179      3.71634     10.51894         0.143285     -1.237272      0.587753
O       5.38259     14.95627     10.64603         0.446971      0.197959      0.086516
O       5.57746      7.48927      2.54261        -0.569185      0.206362      0.092572
O       5.72602      7.46052     14.65784        -0.565519     -0.015318      0.203232
O       5.67855      7.54219      6.54402        -0.096697     -0.840583     -0.320108
O       5.58858      7.47327     10.76456        -0.620192     -0.033949     -0.121623
O       5.61097     11.28055      2.46670         0.239417     -0.799046     -0.391433
O       5.68071     11.23721     14.85567        -0.627480      0.382347     -0.087897
O       5.49257     11.23643      6.56769        -0.410904     -0.130085      0.420992
O       5.76450     11.19920     10.68361         0.213963      0.507880     -0.312474
O       9.18294      3.70604      2.50969         0.043166      0.613742     -0.460044
O       9.42205      3.75468     14.71205        -0.167708     -0.276817      0.172097
O       9.51968      0.04918      2.45707        -0.121856     -1.433661      0.073246
O       9.35499      0.02008     14.68531         0.328188     -0.985766      0.081403
O       9.43868      3.76375      6.56475        -0.215308     -0.412936      0.049476
O       9.16589     14.94225      6.61670         0.618343      0.595965     -0.353806
O       9.30445      3.76029     10.72683        -0.116828     -1.065719     -0.444418
O       9.50500     14.99213     10.61523         0.211036      0.284943     -0.073016
O       9.59224      7.51072      2.45547        -0.895210     -0.622412     -0.436963
O       9.35916      7.54611     14.86180         0.016257     -0.533503      0.186788
O       9.22373      7.50293      6.54877         0.319068     -0.267651      0.145688
O       9.65526      7.48398     10.62963        -0.928453     -0.151479     -0.274995
O       9.31147     11.25010      2.54541        -0.063600     -0.041085     -0.113430
O       9.28932     11.26685     14.76340         0.218554     -0.097108      0.198153
O       9.52661     11.21302      6.46816        -0.243134      0.943618      0.175325
O       9.22314     11.16182     10.69013        -0.015195      0.373310      0.130575
