  # total energy = -7867.72029524 
CRSYTAL
PRIMVEC
    15.010000000000000    0.0000000000000000    0.0000000000000000
     0.0000000000000000   15.010000000000000    0.0000000000000000
     0.0000000000000000    0.0000000000000000    16.400000000000000
PRESSURE
16.8635 17.1346 8.77395 -0.137276 -0.007201 0.072
PRIMCOORD
320 1
Pb       3.83540      3.77127      4.30548        -0.574543     -0.427402     -0.555459
Pb       3.78630      3.76945      0.15039         0.017412     -0.396496     -0.523569
Pb       3.69877      0.06810      4.11623        -0.119594     -0.033003      0.413836
Pb       3.65003      0.00500      0.01507         0.269608      0.018362     -0.577119
Pb       0.01917      3.70141      4.05201        -0.043268     -0.201769     -0.052800
Pb       0.05505      3.81770     16.38965         0.045972     -0.264187     -0.162931
Pb       0.08958     14.97060      4.05459        -0.453667      0.312149      0.092898
Pb      14.93693      0.02451     16.39893         0.438706     -0.220160      0.012852
Pb       3.85996      3.74397      8.26889        -0.693883     -0.147922     -0.505989
Pb       3.76457     14.82157      8.30184         0.364477     -0.016452     -0.565730
Pb       0.14840      3.77731      8.26090        -0.458580     -0.188724     -0.410515
Pb       0.09936     14.95782      8.28702        -0.422189     -0.101952     -0.599387
Pb       3.70271      3.78687     12.27024         0.212543     -0.686919      0.059347
Pb       3.76188     14.96431     12.43458         0.230821      0.447298     -0.607898
Pb       0.07041      3.75048     12.27377        -0.092026     -0.386750     -0.304695
Pb       0.01609      0.00111     12.33447        -0.243603      0.500559     -0.587729
Pb       3.60137      7.44497      4.13516         0.597489      0.521029     -0.182958
Pb       3.69910      7.38425      0.15043        -0.127258      0.673183     -0.507480
Pb      14.83950      7.46969      4.09001         0.202482      0.082801      0.133549
Pb      14.91089      7.55398     16.39430         0.526088     -0.264827     -0.385410
Pb       3.73040      7.46321      8.18922         0.010696     -0.042940     -0.552812
Pb      14.94642      7.46069      8.23670        -0.104444      0.190434     -0.877840
Pb       3.75058      7.54310     12.31791         0.012912     -0.229077      0.291371
Pb       0.05176      7.44540     12.34429        -0.551585      0.006516      0.034377
Pb       3.58379     11.39094      4.09991         0.489274     -1.356961      0.553465
Pb       3.68919     11.24441     16.33407        -0.197748     -0.136650      0.319111
Pb      14.90299     11.32941      4.08141         0.077872     -0.182456     -0.312955
Pb      14.87456     11.24939     16.38440         0.105081      0.145604     -0.030669
Pb       3.68676     11.18921      8.31668         0.004041      0.445751     -0.552513
Pb      14.92804     11.17544      8.29802         0.214588      0.502429     -0.917764
Pb       3.68314     11.30072     12.37291         0.451871     -0.182730     -0.328992
Pb      14.96971     11.27651     12.35262        -0.377079     -0.517523     -0.474760
Pb       7.55354      3.61157      4.22337        -0.361634      0.438091     -0.528857
Pb       7.53100      3.77196      0.02259        -0.080357     -0.368165      0.232198
Pb       7.48289      0.03175      4.19114         0.075975     -0.277468      0.187804
Pb       7.48308      0.10197      0.07218        -0.166648     -0.314328     -0.536260
Pb       7.56575      3.70953      8.23081        -0.053582     -0.107504     -0.271766
Pb       7.57068     14.87810      8.30966        -0.795812      0.059361     -0.951736
Pb       7.60173      3.69843     12.27536        -0.483320     -0.241420     -0.206025
Pb       7.56833     14.95814     12.45185        -0.509526      0.033679     -0.198013
Pb       7.37294      7.55488      4.15075        -0.270777     -0.103797     -0.349542
Pb       7.47531      7.52162      0.09075         0.190390     -0.192216     -0.162382
Pb       7.43411      7.54682      8.28779         0.351779      0.028246     -0.751917
Pb       7.49139      7.39854     12.44518         0.367182      0.436542     -0.215508
Pb       7.36328     11.32928      4.07808         0.650095     -0.307490      0.285175
Pb       7.51358     11.23673      0.05415        -0.040409      0.118120     -0.264054
Pb       7.34689     11.16623      8.34329         0.545236      0.222638     -0.774353
Pb       7.48629     11.14185     12.44438         0.069386      0.279039      0.081560
Pb      11.23031      3.70827      4.10954         0.215198     -0.165821      0.053082
Pb      11.23102      3.73928      0.00025        -0.203376     -0.098719     -0.044008
Pb      11.21601      0.06794      4.17474         0.674247     -0.225923     -0.149747
Pb      11.16114      0.03681      0.09084         0.191912     -0.198260     -0.467872
Pb      11.30267      3.77959      8.17270         0.275795     -0.271926     -0.176011
Pb      11.24112     14.91117      8.28419         0.290726     -0.206835     -0.807388
Pb      11.33674      3.75729     12.29819         0.089102     -0.441706     -0.275759
Pb      11.30446      0.07650     12.28083        -0.231272     -0.567223     -0.164379
Pb      11.16936      7.46058      4.13484         0.258521     -0.060534     -0.117870
Pb      11.20366      7.53533      0.08920        -0.145199     -0.282590     -0.729485
Pb      11.19032      7.51337      8.19891         0.240919     -0.071063     -0.496630
Pb      11.37350      7.47824     12.31728        -0.257208     -0.029337      0.064105
Pb      11.20079     11.25763      4.14814         0.124851      0.644160     -0.281563
Pb      11.24543     11.19696      0.04554         0.149202      0.521714     -0.688775
Pb      11.09770     11.09219      8.25966         0.020333      0.685944     -0.487816
Pb      11.29935     11.23307     12.29175        -0.332131      0.044537     -0.092463
Ti       1.89839      1.88283      2.07253         0.008379      0.474480     -0.247042
Ti       1.88468      1.89336     14.39446         0.770155      0.017478     -0.203955
Ti       1.84307     13.10399      1.99884        -0.961044     -0.086246     -0.346591
Ti       1.76967     13.09907     14.32014         0.376882      0.927718      1.578928
Ti      13.12873      1.84849      1.97700         0.126464      0.166351      0.733716
Ti      13.18746      1.82815     14.38966        -0.199348      0.345914      0.448396
Ti      13.05428     13.17088      1.97912         0.879960     -0.522198      1.042904
Ti      13.07370     13.16052     14.23719        -0.628050     -1.339951      1.176104
Ti       1.83479      1.81681      6.24974         0.883771      0.264187     -0.424724
Ti       1.87054     13.06571      6.19542        -0.047747      0.519918      0.803757
Ti      13.20238      1.86410      6.13985        -0.596757      0.198835      1.288815
Ti      13.13327     13.17703      6.11691        -0.052540     -0.329515      0.706921
Ti       1.88442      1.78535     10.27507         0.044396      1.044346      1.238683
Ti       1.76738     13.12389     10.33574         1.158574     -0.805735     -0.841248
Ti      13.08007      1.78293     10.16700         1.583148      0.776058      0.500551
Ti      13.08471     13.06521     10.19152        -0.231408     -0.062613      0.254130
Ti       1.80856      5.63516      2.08499         0.426473     -0.530765      0.917978
Ti       1.90376      5.65682     14.42780        -0.412370     -0.262485     -0.300756
Ti      13.06817      5.55621      2.02291         0.312897      0.024747      0.686684
Ti      13.09550      5.56115     14.40645         1.067665      0.852228     -0.379615
Ti       1.80045      5.63638      6.09044         0.963104     -1.045409      0.410597
Ti      13.13137      5.56625      6.09134        -0.267379      0.387547      0.928001
Ti       1.92781      5.64898     10.31424         0.005586     -1.167455     -0.532712
Ti      13.17341      5.53056     10.26398        -0.966944      0.524690      0.347180
Ti       1.65641      9.35225      2.05303         1.792346      0.417499      0.889131
Ti       1.85464      9.39188     14.20606         0.531714     -1.207105      1.900543
Ti      12.99790      9.34781      2.13108         0.920817      0.706514     -0.184145
Ti      13.15527      9.35619     14.40030        -0.189891      0.185469     -1.024219
Ti       1.79028      9.35692      6.09534        -0.105962      0.144667      0.959943
Ti      13.07115      9.41017      6.16685         0.746825     -0.769214      0.890297
Ti       1.81002      9.34366     10.20476         0.177511      0.999374     -0.056246
Ti      13.13341      9.34350     10.22867        -0.054133     -0.112955      1.393377
Ti       5.59857      1.77752      2.07851        -0.068182      1.526339     -0.082148
Ti       5.61616      1.90199     14.30014         0.053633      0.087245      0.718842
Ti       5.61724     13.11512      2.13897        -0.131483      0.373387     -1.127310
Ti       5.59879     13.11261     14.43367         1.012827      0.473124     -0.262997
Ti       5.62303      1.77389      6.25694        -0.083934     -0.535177      1.523275
Ti       5.66427     13.09423      6.14152        -0.426366      0.295534      1.643213
Ti       5.63401      1.79968     10.18600         0.271875     -0.586893      1.444785
Ti       5.65001     13.03515     10.40501        -1.326024      1.312904     -0.978487
Ti       5.64059      5.54235      2.07514        -0.295663     -0.126618      0.651446
Ti       5.65029      5.64183     14.40469        -0.290055     -0.863122     -0.372282
Ti       5.59431      5.52667      6.19886         0.115747      0.923896      0.148052
Ti       5.68043      5.57762     10.31065        -0.286877     -0.355028     -0.219188
Ti       5.48303      9.40368      2.09506         0.174854     -0.978583      0.564505
Ti       5.57597      9.34964     14.49894         0.039038      0.410734     -0.686339
Ti       5.57771      9.34023      6.20847        -0.395634      0.419284      0.203724
Ti       5.60992      9.31456     10.40116        -0.266326     -0.038867     -0.378207
Ti       9.33721      1.80476      2.17588         0.176383      1.453249     -0.824722
Ti       9.43649      1.84443     14.35089        -0.811895     -0.037813     -0.785377
Ti       9.35659     13.16231      2.02440         0.087838     -0.820221      1.893473
Ti       9.35431     13.12664     14.41816         0.673199     -0.196393      0.531474
Ti       9.42549      1.84850      6.24769        -0.774637     -0.048159      0.162415
Ti       9.45703     13.15532      6.10083        -1.008105     -1.290261      1.149499
Ti       9.35149      1.76834     10.29718        -0.162238      0.956132     -0.308638
Ti       9.31454     13.07965     10.22550         0.883072     -0.901574      0.469787
Ti       9.35350      5.61977      2.11057        -0.306748     -0.250329     -0.217434
Ti       9.39677      5.53534     14.33347         0.029242      1.369284      1.512565
Ti       9.36628      5.63322      6.14618        -0.215926      0.071760      0.798316
Ti       9.39066      5.60825     10.16686         0.562284     -0.625931      0.869986
Ti       9.30551      9.41299      2.11977        -0.733933      0.432717      0.031542
Ti       9.45198      9.36563     14.41159        -0.616243      0.217613      0.184943
Ti       9.32204      9.39295      6.08374        -0.225726      0.261845      1.533871
Ti       9.36055      9.30019     10.42400         0.191585      1.011430     -1.023325
O       1.97053      1.93473      0.21947        -0.055894     -0.287325      0.742745
O       1.82798      1.76968     12.55394         0.407984      0.421639     -0.097404
O       1.82046     13.03480      0.16474         0.052881      0.180328     -0.131178
O       1.81096     13.11221     12.54152         0.045192      0.150936     -1.301390
O      13.12121      1.81242      0.15671         0.101256     -0.023954      0.313067
O      13.14152      1.81677     12.61317        -0.073462      0.053624     -0.927585
O      13.24671     13.22022      0.21236        -0.080015     -0.144558     -0.804263
O      13.09274     13.07956     12.43250         0.025401      0.102235      0.007303
O       1.81004      1.78821      4.37726         0.146894      0.108099     -0.279451
O       1.88428     13.10139      4.35252        -0.343402      0.127346     -0.480520
O      13.19536      1.86426      4.35926        -0.154620      0.121784     -1.137346
O      12.97930     13.24266      4.28832         0.472875     -0.697054     -0.148703
O       1.72174      1.93026      8.53068         0.447218     -0.234670     -1.737844
O       1.90205     13.10754      8.48635         0.116326     -0.286460     -0.086193
O      13.28867      1.86857      8.40160        -0.711607     -0.066312      0.173062
O      13.12906     13.09536      8.39572        -0.373625      0.192074     -0.003859
O       1.82252      5.67338      0.28871        -0.079980     -0.113599     -1.355541
O       1.92265      5.65653     12.58449         0.021293     -0.213513     -0.685696
O      13.20349      5.58172      0.21616        -0.426683     -0.100522     -0.210733
O      13.00962      5.75365     12.57517         0.622490     -0.850905     -0.393499
O       2.02490      5.58629      4.27228        -0.639954      0.010585      0.010277
O      13.06349      5.56277      4.29908         0.115471      0.066025     -0.487248
O       1.97998      5.62084      8.48118        -0.409796      0.152511      0.155074
O      13.08864      5.55839      8.46800         0.066006      0.205058      0.236588
O       1.78310      9.31536      0.29701         0.044309      0.104087     -0.856447
O       1.89018      9.41332     12.43685        -0.038092     -0.428105     -0.756613
O      12.94683      9.35190      0.28870         0.774942     -0.187558     -0.269259
O      13.17082      9.35499     12.54815        -0.262906     -0.060331      0.316485
O       1.70742      9.43602      4.31143         0.179018     -0.203657     -0.768202
O      13.08859      9.42914      4.36909        -0.070515     -0.229316     -1.233862
O       1.75813      9.34683      8.35148         0.411895     -0.209579      1.108566
O      13.25693      9.41927      8.45701        -0.682966     -0.527361     -0.861138
O       5.59074      1.84739      0.29337        -0.093492     -0.358409     -1.187589
O       5.59353      1.85574     12.53999        -0.183957      0.104890     -0.418263
O       5.56800     13.08747      0.25727         0.004226      0.026175      0.383637
O       5.71387     12.94453     12.56499        -0.343694      0.582755     -0.284657
O       5.52700      1.82815      4.47753         0.594145     -0.164526     -1.802329
O       5.53168     13.20308      4.33479         0.091018     -0.385284     -0.891155
O       5.73874      1.80518      8.39990         0.030401      0.305652     -0.004691
O       5.61985     13.11316      8.47942         0.033885     -0.394889      1.014111
O       5.70017      5.65095      0.25736        -0.292032      0.121586     -0.733967
O       5.88621      5.70811     12.52640        -1.180016     -0.532262      0.409151
O       5.57347      5.40108      4.36887         0.292272      0.594488     -0.975765
O       5.55654      5.56271      8.46253         0.256783      0.245004      0.177619
O       5.65077      9.38812      0.29700        -0.415448     -0.052656     -1.127676
O       5.56405      9.32673     12.62381         0.123953      0.033349     -0.743629
O       5.71665      9.43697      4.44146        -0.311270     -0.259661     -1.431843
O       5.72147      9.23994      8.52694        -0.306506      0.347267     -0.267905
O       9.28495      1.79777      0.29087         0.431808      0.267029     -0.351892
O       9.48690      1.78066     12.40264        -0.104597      0.371785      1.533842
O       9.20849     13.16505      0.29044         0.280025      0.147592     -1.813525
O       9.42287     13.26150     12.65192         0.052526     -0.471297     -1.369905
O       9.32386      1.84237      4.32723        -0.042894     -0.115259     -0.087125
O       9.42354     13.11941      4.31677         0.209144      0.298475     -0.738257
O       9.23666      1.88329      8.43759         0.600495     -0.428133     -0.381369
O       9.39052     13.06979      8.40447        -0.013346      0.240303      0.467501
O       9.37197      5.47841      0.31406         0.333293      0.304843     -1.028811
O       9.38242      5.54332     12.57734        -0.123827      0.082070     -1.177753
O       9.40335      5.77458      4.33437        -0.472586     -0.576583     -0.601562
O       9.55267      5.49484      8.36112        -0.717712      0.736898      0.309213
O       9.44042      9.56272      0.30171        -0.103985     -0.659445     -0.811640
O       9.49045      9.45377     12.61575        -0.302777     -0.413263     -0.798717
O       9.30874      9.30397      4.28482         0.153245      0.139971     -0.164814
O       9.31853      9.28775      8.54785         0.107012      0.268563      0.278765
O       3.76901      2.12021      2.38270        -0.889902     -0.198531      0.103547
O       3.76381      1.58629     14.59854         0.402571      0.038746     -0.022301
O       3.63670     12.74412      2.31743         0.933478      0.865755     -0.614666
O       3.76554     13.29735     14.47874        -0.974989      0.207531      0.408186
O       0.01490      1.72511      2.24914        -0.249798     -0.503323      0.156467
O       0.05335      2.03980     14.69886        -1.000922      0.056243     -0.000385
O      14.96055     13.40261      2.29334         0.546547     -0.338315      0.214510
O      14.94268     12.79006     14.47768         0.940721      0.708498      0.271739
O       3.70527      1.85738      6.50580         0.489806      0.096268      0.172866
O       3.74132     13.04612      6.45772        -0.179939     -0.362274     -0.018348
O      15.00077      1.69799      6.43913         0.108161      0.153063      0.106691
O      14.97491     13.23744      6.47885         0.125459     -0.254745     -0.486133
O       3.80205      2.04083     10.44850        -1.068414      0.207924      0.169070
O       3.75397     12.88740     10.58595        -0.349291      0.019753     -0.001697
O       0.03713      1.67295     10.59211        -1.229135      0.018112      0.154361
O      14.96220     13.39587     10.39465        -0.086811     -0.409129      0.705185
O       3.74124      5.31868      2.15338         0.134189      0.410810      0.550013
O       3.74641      5.84835     14.61014         0.798840      0.362461      0.286166
O      14.93916      5.76451      2.38738         0.076555      0.173314     -0.023270
O       0.04025      5.50588     14.54285        -0.863384     -0.933824      0.476505
O       3.71138      5.45455      6.40762         0.186257      0.164209      0.283600
O      15.00557      5.75898      6.42533         0.059019     -0.180348      0.052504
O       3.80319      5.34846     10.51051        -0.442165      0.201501      0.419665
O       0.00507      5.76134     10.55110        -0.033912      0.106355      0.056501
O       3.66014      9.56308      2.36054        -0.310221      0.190307     -0.046807
O       3.69017      9.09689     14.66949         0.370484      0.253361      0.156591
O      14.87442      9.04991      2.35797        -0.030393      0.173138     -0.125660
O       0.04458      9.52076     14.57076        -0.806981      0.223980      0.391043
O       3.69191      9.42606      6.43714         0.537502      0.086057      0.185100
O      14.96435      9.25685      6.45898        -0.090797     -0.308100     -0.125735
O       3.69935      9.63019     10.44059         0.482008     -0.148978      0.132928
O      14.98453      9.15363     10.50714         0.513688     -0.345669      0.194062
O       7.45199      1.54110      2.26033         0.585888     -0.257151      0.864511
O       7.51481      2.11097     14.43180         0.567812      0.096395      0.528720
O       7.48580     13.39331      2.38783        -1.234425     -0.052808     -0.020143
O       7.50048     12.88338     14.57198        -0.126500     -0.235884      0.410097
O       7.53568      1.54273      6.39541        -0.459414      0.753452     -0.225083
O       7.53331     13.23110      6.36046         0.060134      0.262297     -0.134432
O       7.52681      1.49960     10.60702        -0.131844      0.438393     -0.273676
O       7.48486     13.31823     10.49608         0.773332      0.383532      0.296631
O       7.49668      5.78657      2.17604        -0.193250      0.557882      0.994283
O       7.53034      5.39031     14.66541         0.110472      0.411223     -0.128320
O       7.44901      5.67882      6.41902         1.178151     -0.045184      0.081494
O       7.51582      5.89235     10.47482         0.418331     -0.085618     -0.173501
O       7.45157      9.29110      2.27502        -0.236003     -0.679092      0.402180
O       7.51804      9.61730     14.62561        -0.044660     -0.340274      0.168467
O       7.49897      9.21343      6.40470         0.374635     -0.145896      0.327394
O       7.48068      9.11510     10.57889        -0.022450     -0.356208      0.474396
O      11.25276      2.07563      2.33730        -0.074109     -0.062615     -0.169577
O      11.28228      1.67427     14.72091        -0.088192     -0.173694     -0.334128
O      11.23618     12.88427      2.18119        -0.243173     -0.078341      0.244254
O      11.28309     13.28216     14.78959        -0.160148      0.433561     -0.307263
O      11.23989      2.13647      6.35441         0.657229     -0.563494      0.219501
O      11.28871     13.04714      6.40559        -0.309430     -0.439455      0.308979
O      11.24502      2.04569     10.44599         0.275418      0.001218      0.067326
O      11.22468     12.79683     10.46354         0.083526      0.398335      0.006494
O      11.20884      5.35612      2.38668         0.513334      0.239176     -0.360710
O      11.29214      5.80074     14.65912        -0.948693     -0.288950      0.370109
O      11.26077      5.46201      6.36728        -0.289159     -0.119272      0.013124
O      11.23319      5.30415     10.59335        -0.114508      0.605321     -0.534642
O      11.19885      9.58433      2.39750        -0.333788      0.158123      0.240003
O      11.31171      9.20947     14.66991        -0.518219     -0.138419      0.127340
O      11.22298      9.43264      6.51790        -0.574088     -0.378490     -0.218372
O      11.29566      9.60457     10.48842        -0.813679     -0.010303      0.141801
O       1.63583      3.76774      2.29816        -0.057425     -0.741587     -0.020462
O       2.16021      3.72156     14.62224        -0.375789      0.787918      0.047354
O       2.06065     14.98964      2.25478         0.283366      0.049785      0.106716
O       1.76473      0.01712     14.65332        -0.699385     -1.666735      0.104903
O      13.33196      3.69428      2.27803        -0.128200      0.515207      0.048087
O      12.96268      3.71488     14.57477         0.083576     -0.121822      0.223794
O      12.92726      0.01811      2.25736        -0.325169      0.063953      0.143032
O      13.41594     14.93693     14.48772         0.097355      0.900269      0.402355
O       1.76666      3.71935      6.39299        -0.306046      0.243617      0.225259
O       1.88353     14.96797      6.52951         0.330401     -0.416440     -0.014395
O      13.31722      3.75439      6.46891         0.022015     -0.229579     -0.089126
O      12.94260      0.02136      6.40906        -0.181333     -0.155764      0.119603
O       1.70636      3.74191     10.54770         0.071747      0.148122      0.415441
O       1.96959     14.95287     10.48784         0.932787      0.528834      0.445580
O      13.31406      3.66138     10.57278         0.059436      0.718168      0.221781
O      12.98227     14.97138     10.48485        -0.716619     -0.061234      0.131173
O       2.01101      7.47046      2.37612         0.135204      0.327357      0.080247
O       1.64089      7.50939     14.60975         0.088848      0.188398     -0.034162
O      12.87889      7.44314      2.29269        -0.379575      0.074390      0.262690
O      13.34755      7.46141     14.63843        -0.167900      0.678035      0.124052
O       2.00093      7.44512      6.32179         0.031436      0.823268      0.233882
O      13.06807      7.45106      6.41855        -0.481997      0.353974      0.142697
O       2.03498      7.49101     10.55652         0.355474      0.217589     -0.083150
O      12.87065      7.47809     10.52902         0.379843     -0.540054     -0.481970
O       1.45199     11.22734      2.18702         0.099406      0.341690      0.661509
O       2.06032     11.22510     14.44330         0.412491      0.568903      0.669434
O      13.36017     11.24330      2.18360        -0.082814      0.008845      0.508160
O      13.00666     11.23748     14.59031        -0.361844     -0.079733      0.304606
O       1.72737     11.21287      6.37865         0.122626      0.474881      0.237447
O      13.12741     11.21590      6.41744         0.436432      1.041928     -0.218116
O       1.61405     11.25380     10.46944        -0.137112     -0.628061      0.152287
O      13.39208     11.23721     10.48709         0.131218     -0.182086      0.101692
O       5.92087      3.64527      2.20617        -0.080668      1.104844      0.658084
O       5.33860      3.82185     14.65354         0.430561     -1.072550     -0.182145
O       5.29195     14.97790      2.33233        -0.204046     -1.056912      0.133696
O       5.94116      0.00722     14.55097        -0.544222     -0.445019      0.113900
O       5.63635      3.66561      6.47170         0.503097     -0.211409      0.168683
O       5.54115     14.91052      6.60021        -0.250861      0.530264     -0.477879
O       5.86969      3.65204     10.59838         0.228732      1.228435     -0.397206
O       5.38293     14.99769     10.57479         0.160032     -0.925555      0.008442
O       5.37568      7.48320      2.31668         0.332414     -0.152632      0.492774
O       5.80776      7.49470     14.62487         0.499868      0.059639      0.466857
O       5.55696      7.43554      6.31265        -0.399156      0.234303      0.475320
O       5.28677      7.45876     10.51793         0.432604     -0.103572      0.007268
O       5.77664     11.24634      2.36911        -0.038316      0.700249      0.082029
O       5.31989     11.21399     14.56635         0.295499      0.172082      0.581305
O       5.77496     11.24537      6.47211        -0.273828     -0.469160      0.231763
O       5.94003     11.20417     10.44851        -0.356577     -0.678619      0.373612
O       9.09479      3.71242      2.27988         0.057338     -0.101488      0.867045
O       9.60195      3.70888     14.59030         0.310937     -0.197089      0.307358
O       9.60212     14.99955      2.29422         0.278821     -0.135533      0.462819
O       9.18937      0.02629     14.60139        -0.061299      0.033887      0.544661
O       9.20763      3.70602      6.34772        -0.383361      0.797982     -0.017959
O       9.61906     14.97004      6.40972         0.024320      0.852293      0.192348
O       9.07721      3.72085     10.31949         0.011411      0.201016      0.803644
O       9.67212     14.92380     10.44674         0.048936      0.160968     -0.064527
O       9.50170      7.54742      2.15040         0.450359     -0.604001      0.450504
O       9.31762      7.48229     14.63948        -0.651085      0.003273      0.367795
O       9.51679      7.47675      6.47361        -0.184630      0.271697     -0.210219
O       9.55790      7.48815     10.52048         0.581296     -1.285127      0.264786
O       9.07662     11.34047      2.31931         0.346565     -1.005743      0.399743
O       9.62143     11.29805     14.64080        -0.046948     -0.922250      0.094129
O       9.30236     11.25892      6.48716         0.119948     -1.046435     -0.555375
O       9.13350     11.21545     10.61180         0.020420      0.236670     -0.087975
