  # total energy = -7881.38642562 
CRSYTAL
PRIMVEC
    15.3600000000000000    0.0000000000000000    0.0000000000000000
     0.0000000000000000   15.3600000000000000    0.0000000000000000
     0.0000000000000000    0.0000000000000000    17.440000000000000
PRESSURE
1.09086 0.877859 -1.44911 -0.061827 -0.342581 -0.047148
PRIMCOORD
320 1
Pb       3.94263      3.78977      4.36860        -0.152497      0.225161      0.201619
Pb       3.87157      3.81288      0.02455        -0.317418     -0.436971     -0.698522
Pb       3.78167      0.03412      4.35050         0.225506     -0.406310      0.205521
Pb       3.81664     15.28654     17.33996         0.092955      0.628720     -0.164542
Pb       0.07887      3.82468      4.34224        -0.474571     -0.203761      0.254366
Pb       0.03136      3.82848      0.00179         0.090357      0.085261     -0.464023
Pb       0.07991      0.03474      4.37844        -0.484216     -0.493373     -0.299686
Pb      15.24976      0.09441     17.35481        -0.071032     -0.606756      0.329766
Pb       3.75013      3.84345      8.66218        -0.309375      0.365737     -0.584723
Pb       3.73896     15.28618      8.67708         0.125522     -0.083163     -0.408676
Pb      15.12168      3.94613      8.66087         1.133119     -0.187479     -0.241291
Pb      15.25911     15.27374      8.73617         0.181266      0.511113     -0.943428
Pb       3.99797      3.65663     13.02368        -1.098198      0.755626      0.358833
Pb       3.80988      0.00235     12.94954         0.175160     -0.143807      0.175310
Pb       0.02773      3.76986     13.01195        -0.104477      0.675560      0.154449
Pb      15.26801     15.19590     13.03109         0.215954      0.259521      0.173197
Pb       3.84082      7.68185      4.31199         0.129420      0.179553     -0.013200
Pb       3.80200      7.66579      0.03736        -0.241707      0.027776     -0.628710
Pb       0.10774      7.71358      4.27628        -0.582802      0.213190      0.208556
Pb       0.04582      7.69676      0.05460        -0.122123      0.001419     -0.266056
Pb       3.74134      7.67549      8.63431         0.120145     -0.022405     -0.352418
Pb      15.22952      7.65106      8.64985         0.471894     -0.046445      0.138125
Pb       3.90309      7.58242     13.08150        -0.635903      0.009921     -0.104391
Pb      15.33799      7.67303     13.05238         0.196093     -0.035578      0.361626
Pb       3.81496     11.51216      4.33233         0.007695      0.093356     -0.223946
Pb       3.86181     11.55926     17.41739        -0.020982     -0.357473     -0.174979
Pb       0.09137     11.55686      4.28350        -0.170564     -0.025942     -0.492376
Pb      15.23723     11.47272     17.41777        -0.009269      0.068993      0.295817
Pb       3.85499     11.45027      8.67679         0.271140      0.119868     -0.436761
Pb       0.03134     11.49292      8.72077        -0.289575     -0.291178      0.014893
Pb       3.89787     11.37163     13.00198        -0.192834      0.230905     -0.327329
Pb       0.13945     11.45215     13.01102        -0.311444      0.139454      0.403099
Pb       7.64350      3.80941      4.17752         0.636188     -0.329473      1.652244
Pb       7.70992      3.79115      0.06348        -0.071167      0.105701     -0.512497
Pb       7.63725     15.30519      4.40279         0.381082      0.042708     -0.213280
Pb       7.51339     15.35778     17.37109         0.481184     -0.487559      0.112555
Pb       7.48379      3.91948      8.65758         0.644833     -0.137311     -0.014077
Pb       7.66513      0.04920      8.76395         0.038188     -0.331326     -0.659896
Pb       7.80377      3.87410     13.00655        -0.235714      0.330197      0.521466
Pb       7.70612      0.07200     12.94647         0.114517     -0.986873      0.499759
Pb       7.71902      7.60659      4.32317        -0.165624      0.530340      0.060656
Pb       7.57494      7.72285      0.02702         0.582742     -0.022587     -0.492525
Pb       7.73949      7.59814      8.72815        -0.009971      1.029850     -0.122730
Pb       7.73231      7.70822     13.11290        -0.762708     -0.084191      0.021625
Pb       7.63859     11.40588      4.34888         0.215834      0.306108      0.004938
Pb       7.61465     11.63329     17.24898        -0.135209     -0.577992      1.042124
Pb       7.73900     11.56639      8.71794        -0.071873     -0.335806     -0.377436
Pb       7.75010     11.61234     12.94450        -0.103661     -0.360838     -0.342656
Pb      11.49086      3.73654      4.28157         0.381116      0.074108     -0.014861
Pb      11.63537      3.86692      0.15351        -0.143436      0.335687     -0.426035
Pb      11.65672     15.31047      4.37034        -0.368127     -0.034908      0.226739
Pb      11.24639     15.27027      0.03233         0.734039     -0.191194     -0.337214
Pb      11.51078      3.85467      8.61330        -0.105461     -0.039484      0.490864
Pb      11.43710      0.06654      8.72952         0.261005     -0.425640     -0.298431
Pb      11.48455      3.74678     12.99740         0.476562      0.129875      0.430646
Pb      11.43482     15.28398     13.11709         0.252981      0.218480     -0.080630
Pb      11.57450      7.50713      4.35284         0.267121      0.545275     -0.672924
Pb      11.41721      7.73793     17.42201        -0.040388     -0.034120     -0.257213
Pb      11.61938      7.70510      8.64532        -0.681043      0.310875      0.030222
Pb      11.36843      7.54397     13.16171         0.225342      0.782208      0.211861
Pb      11.47924     11.47600      4.24811         0.039568     -0.152446      0.257027
Pb      11.41348     11.48670     17.35179         0.209477      0.140925      0.281689
Pb      11.41999     11.41154      8.68587        -0.038264     -0.064955     -0.219589
Pb      11.59196     11.49940     13.03753        -0.348201     -0.648942      0.763697
Ti       1.94609      1.86219      2.37371        -0.261744      1.016668     -1.621793
Ti       1.86263      1.89895     15.34079         1.132106      1.057660      0.446630
Ti       1.95232     13.48421      2.25519        -0.317417     -0.829753      1.001422
Ti       1.87351     13.48754     15.36799        -0.037343     -0.628907     -0.906796
Ti      13.49167      1.84010      2.25238        -0.062361      0.004215      0.474649
Ti      13.33601      1.81647     15.52010        -0.420981      0.619477     -1.177615
Ti      13.36932     13.43334      2.34326         1.730075     -0.653790     -1.474629
Ti      13.47877     13.37142     15.34749        -1.140881     -0.489425      0.801486
Ti       1.87486      1.93760      6.64909        -0.509860      0.646308      1.837846
Ti       1.87005     13.40014      6.69719         1.043457      0.165442     -0.565089
Ti      13.38416      1.89636      6.66719         1.474850     -0.062866     -1.677467
Ti      13.39623     13.37758      6.66905        -0.146776      0.711587     -0.676773
Ti       1.84934      1.97466     10.95320         0.662041      0.315226     -1.327713
Ti       1.93690     13.57111     11.03467         0.262395     -1.701453      0.057974
Ti      13.39235      1.92307     11.06723        -0.324174      0.197690     -0.404934
Ti      13.43162     13.42077     11.03081        -0.770907     -0.700229      0.789018
Ti       1.89742      5.68164      2.42626         0.588777      0.815458     -0.416854
Ti       1.89342      5.78022     15.45535        -0.107179     -0.626009     -1.037477
Ti      13.49475      5.67225      2.29971        -1.287252      0.632407     -0.100650
Ti      13.34458      5.71795     15.41119         0.470307      0.147012      0.000672
Ti       1.89131      5.79991      6.57315        -0.242374     -1.075075      0.636772
Ti      13.38540      5.80545      6.64007         1.117899     -0.557407     -0.286547
Ti       1.86457      5.76649     11.00660         0.475598      0.610142     -0.254719
Ti      13.42417      5.86721     11.08905         0.423183     -0.647915     -0.917578
Ti       1.95298      9.57460      2.24368        -0.630744      0.443489      1.113287
Ti       1.88777      9.66411     15.37434        -0.044188     -0.798731      0.914976
Ti      13.41653      9.60644      2.31950         0.493955     -0.610076     -0.605142
Ti      13.38942      9.54672     15.44083        -0.284617     -0.163632     -1.113556
Ti       1.80382      9.61121      6.72758         1.479170     -0.318898     -0.874361
Ti      13.44824      9.66128      6.60979        -0.794452     -0.578622      0.348622
Ti       1.82302      9.59070     11.00240        -0.084928     -0.483776     -1.248347
Ti      13.31219      9.64640     11.11274         0.827901     -0.620294      0.379399
Ti       5.75681      1.83386      2.36077        -0.264706      0.453857      0.220971
Ti       5.82209      1.91846     15.33045        -1.623276     -0.183575     -0.263027
Ti       5.75603     13.46963      2.26714        -0.616193     -0.716326      0.009530
Ti       5.65584     13.38852     15.26231         0.425047      0.222434      0.717227
Ti       5.70717      1.98099      6.74195         0.004862     -0.606991     -1.648239
Ti       5.83787     13.49745      6.66822        -0.451267     -1.467478      1.477496
Ti       5.83274      1.94255     11.07557        -1.153855     -0.752328     -0.952970
Ti       5.78900     13.40438     10.99464         0.380039     -0.147499      0.082398
Ti       5.80667      5.72572      2.32974        -1.113743      0.520395      0.878626
Ti       5.71948      5.69833     15.38717         0.314167      0.543113      0.123624
Ti       5.75452      5.87188      6.61978        -1.446761     -0.084202     -0.144346
Ti       5.75207      5.77050     11.03953        -0.623455      0.496924     -1.604515
Ti       5.78033      9.60326      2.31170        -0.291090      0.651128      0.290615
Ti       5.66943      9.51371     15.31564        -0.349418      0.856620      0.169997
Ti       5.76732      9.63474      6.67303        -0.061257      0.515839      1.231100
Ti       5.60869      9.50496     10.94341         1.528969      0.641432     -0.585852
Ti       9.65093      1.79862      2.40008        -0.410498      0.086310     -0.052871
Ti       9.58406      1.92298     15.40234        -0.289238     -0.569193     -0.722024
Ti       9.60596     13.39572      2.29418        -0.884621     -0.451244     -0.668988
Ti       9.54387     13.43485     15.38261         0.315854      0.091692      0.909479
Ti       9.59099      1.95986      6.73178        -1.064975     -0.329638     -1.046303
Ti       9.71122     13.41110      6.66309        -1.058158     -0.303741      0.467895
Ti       9.59057      1.94025     10.99502         1.802470     -0.412050     -1.270182
Ti       9.69715     13.41806     10.96361        -0.980332     -1.156671     -0.606361
Ti       9.60557      5.76071      2.30898         0.754987     -0.129298     -1.437779
Ti       9.52253      5.65888     15.43381         0.492511      1.551310      0.470788
Ti       9.61859      5.78040      6.66667        -0.411330      0.013569      1.699176
Ti       9.61622      5.80360     11.00016        -0.545892      0.330117     -0.301778
Ti       9.59322      9.57293      2.31461         0.300519      0.142301     -1.000681
Ti       9.42078      9.59319     15.39371         1.675372     -0.577345      0.153551
Ti       9.62444      9.56374      6.50563        -0.679325      0.365689     -0.112948
Ti       9.51480      9.56508     11.09899         0.060794      0.255038     -1.512258
O       1.93459      1.85144      0.58707        -0.015543     -0.137425      0.036072
O       1.96631      1.95580     13.58234        -0.324865      0.063801     -0.248015
O       2.09835     13.47707      0.51066        -0.543777      0.312525     -0.856605
O       1.86485     13.59472     13.58581        -0.066292     -0.416883     -0.292476
O      13.43412      1.82794      0.45319         0.037247     -0.150166      0.069311
O      13.23997      1.87310     13.73216         0.498436      0.091241      0.032695
O      13.57244     13.43607      0.52085        -0.295311     -0.003773      1.365775
O      13.39253     13.24145     13.56704         0.272730      0.489236      0.497043
O       1.88308      2.01923      4.91004        -0.187417     -0.517298     -1.132044
O       1.92618     13.48404      4.90907        -0.102052     -0.433877      0.358763
O      13.48850      1.90540      4.83648        -0.314952     -0.176125      1.384498
O      13.26450     13.43706      4.86624         0.487310     -0.041785      1.040849
O       1.89805      1.93378      9.14114         0.184769     -0.119067      1.201527
O       1.89050     13.52815      9.27442        -0.508400      0.020500     -0.016671
O      13.23867      1.85449      9.30280         0.521199      0.116262      0.169197
O      13.30791     13.57001      9.28034         0.557789     -0.310239      0.288045
O       1.88727      5.91762      0.67537         0.128227     -0.491530     -0.682359
O       1.81757      5.65268     13.67394        -0.047938      0.190173      0.774915
O      13.26778      5.59224      0.50739         0.700012      0.354915      0.790166
O      13.51310      5.67020     13.61508        -0.576120      0.119228      0.872281
O       1.77528      5.68436      4.80940         0.232819      0.258087     -0.688646
O      13.33865      5.73312      4.86381        -0.098240     -0.067027      0.196386
O       1.85170      5.91692      9.21716        -0.009175     -0.578984      0.618628
O      13.51684      5.72597      9.21249        -0.576512      0.476853      1.798921
O       1.89708      9.51194      0.52155         0.275729     -0.208355     -1.390774
O       1.91002      9.55369     13.62195         0.052619      0.331493     -0.269187
O      13.43889      9.52610      0.52957        -0.074024      0.078681      0.446035
O      13.41934      9.66925     13.63012        -0.063531     -0.075602      0.537403
O       1.79415      9.70298      4.95169         0.130848     -0.146242     -0.294120
O      13.51384      9.54394      4.90903        -0.098545      0.226950     -1.513105
O       1.66829      9.39451      9.16219         0.607875      0.773712      1.194485
O      13.36605      9.61501      9.38071         0.008360     -0.171882     -1.714330
O       5.84228      1.89415      0.61018        -0.193864      0.174209     -0.407675
O       5.80946      2.00630     13.52311         0.190541     -0.460675      0.258550
O       5.63173     13.44966      0.48546        -0.094972      0.105136      0.011872
O       5.62362     13.39345     13.52266         0.452990     -0.252348     -0.571988
O       5.63736      1.91946      4.89618         0.596381     -0.196086      1.048656
O       5.74228     13.41501      4.92959        -0.014199      0.300027     -0.541701
O       5.76811      2.01367      9.29400         0.217312     -0.127627      0.398202
O       5.89247     13.39208      9.25627        -0.336987      0.262021     -0.072662
O       5.76795      5.74519      0.58339         0.222068      0.035157     -0.371775
O       5.85422      5.76646     13.64253        -0.489067     -0.241319     -0.637208
O       5.71148      5.78631      4.84166         0.447967      0.170425      0.095525
O       5.56406      5.86093      9.18041         0.528733     -0.508016      1.684843
O       5.78605      9.57099      0.56628        -0.232486     -0.263161     -0.018220
O       5.64590      9.45966     13.53570        -0.072073      0.639176      0.015959
O       5.72451      9.75009      4.94616        -0.073135      0.072667     -1.727582
O       5.64952      9.56827      9.13504        -0.063816     -0.391492      1.381999
O       9.56410      1.80304      0.61271        -0.188137      0.282354      1.063640
O       9.52569      1.91093     13.57407         0.214738     -0.139749      0.955119
O       9.47641     13.49540      0.48299         0.462461     -0.157559      0.923000
O       9.50238     13.37035     13.63247         0.152392      0.195291      0.061005
O       9.42956      1.96473      4.91864         0.537411     -0.229427      1.080867
O       9.67954     13.30279      4.91891        -0.030589      0.395750     -0.174159
O       9.61703      1.81766      9.17299        -0.036653      0.392804      1.281173
O       9.61919     13.27412      9.15275         0.544628      0.451620      0.668942
O       9.55382      5.83400      0.48800        -0.132138     -0.736321      1.147327
O       9.46333      5.74811     13.65373         0.455069     -0.023914     -0.422563
O       9.58938      5.74006      4.95241         0.143543     -0.085352     -1.106026
O       9.54076      5.99833      9.24420         0.529028     -0.374847      0.268896
O       9.49149      9.59771      0.47183         0.000895     -0.274448      1.601597
O       9.54937      9.55113     13.57828        -0.509039      0.030571      0.764278
O       9.66875      9.72508      4.71244        -0.386854     -0.733894      0.522349
O       9.47208      9.57041      9.27557         0.752953     -0.307577      0.664680
O       3.79248      1.97356      2.77024         0.842376      0.167160     -0.012381
O       3.90622      1.96009     15.76743        -0.264786     -0.451279      0.037630
O       3.77936     13.53780      2.73987         0.323142     -0.388464      0.103466
O       3.76239     13.44049     15.60949         0.166173     -0.471124      0.685613
O      15.33308      1.75940      2.64223         0.056244      0.300160      0.242405
O      15.28831      1.98337     15.78673         0.627628     -0.437109     -0.142977
O      15.33254     13.43205      2.79395         0.662793      0.541355     -0.242843
O      15.32043     13.28626     15.68329         0.044148      1.047034      0.245806
O       3.81069      1.90702      6.96845        -0.268489      0.118633      0.728598
O       3.79773     13.24087      7.18524         0.334570      0.918136     -0.367948
O      15.31442      1.90923      7.02855        -0.088559     -0.544890      0.299051
O      15.33674     13.40452      7.03229        -0.912864      0.176278      0.452700
O       3.88479      1.82434     11.32615        -0.107722      0.466429      0.334908
O       3.83090     13.57581     11.30302         0.044936      0.094114      0.140648
O      15.33166      2.02524     11.22446        -0.660546     -0.390525      0.602663
O      15.30945     13.25199     11.49100         0.083903      1.306545     -0.627451
O       3.82929      5.69384      2.69591         0.634774      0.371824      0.177920
O       3.83264      5.61039     15.78555         0.139814      0.790507      0.292711
O      15.31938      5.77418      2.72477        -0.154911     -0.333716     -0.142934
O      15.30194      5.79176     15.92684         0.054554     -0.498951     -0.198640
O       3.79287      5.66753      6.92068        -0.117540      0.192787      0.425433
O      15.31328      5.77424      7.03915        -0.579421      0.087735      0.007347
O       3.78158      5.75304     11.39888         0.663258     -0.143746      0.166941
O      15.27385      5.71106     11.54556         0.620561     -0.264311     -0.466672
O       3.80658      9.54678      2.68475         0.730945     -0.072733      0.167216
O       3.80112      9.63812     15.80387        -0.602634      0.113206      0.025451
O       0.00894      9.57359      2.55459        -0.116109     -0.074768      0.686188
O      15.27768      9.41607     15.82180         0.722943      0.231855     -0.094820
O       3.77256      9.64827      6.99321        -0.583929      0.348255      0.532830
O      15.27755      9.54982      7.01872        -0.079131      0.231575      0.698736
O       3.74522      9.47384     11.38642         0.482508      0.439631      0.001759
O       0.01021      9.75805     11.42219         0.183852     -0.288155      0.154767
O       7.63370      1.78866      2.83832         0.423330     -0.045096     -0.459721
O       7.61934      1.77732     15.85380         0.074086      0.839912     -0.163379
O       7.60453     13.47692      2.62266         0.055703      0.066352      0.367357
O       7.65797     13.37351     15.75222        -1.027429      0.517985     -0.527802
O       7.65785      1.90918      7.23490        -0.201098      0.028119     -0.487401
O       7.78447     13.41531      7.03680        -0.796575      0.672592     -0.036495
O       7.85204      1.87515     11.52064        -2.331828      0.131034     -0.678510
O       7.77920     13.39869     11.30580        -1.041408     -0.198798      0.681573
O       7.72094      5.80070      2.72868        -0.733967     -0.175893     -0.123184
O       7.68568      5.83605     15.76060        -1.229593     -0.151177      0.662331
O       7.56021      5.75932      7.20359         0.785809      0.514390     -0.870306
O       7.71237      5.78745     11.26862        -1.456217     -0.562176      0.316993
O       7.73375      9.52367      2.77339        -0.808529      0.319293     -0.108739
O       7.53459      9.59807     15.83210         0.820218     -0.236150     -0.465155
O       7.65849      9.45398      6.88837         0.251192      0.109271      0.175314
O       7.64577      9.48660     11.27398        -1.206495      0.389030      0.741579
O      11.60892      1.89152      2.76462        -2.043259     -0.246332     -0.282802
O      11.40358      1.70897     15.73318         0.004748      0.798018      0.471932
O      11.50060     13.40173      2.69529        -0.484419     -0.271058     -0.291604
O      11.53702     13.46024     15.86905        -1.140108     -0.668376     -0.583586
O      11.51923      2.05344      6.97120        -0.832847     -0.017546      0.331889
O      11.56299     13.42915      7.14693        -0.608249     -0.324148     -0.054611
O      11.48675      1.83734     11.45170        -0.337810      0.259697      0.249941
O      11.46266     13.29769     11.66874         0.868842      0.837925     -1.276473
O      11.47796      5.67629      2.65803         0.035983     -0.539543      0.465636
O      11.45274      5.66681     15.84546        -0.083174     -0.235823     -0.340122
O      11.51927      5.69748      7.23360        -0.492754      0.492717     -0.920705
O      11.50422      5.87882     11.50180         0.118589     -0.043633     -0.381677
O      11.55476      9.57683      2.61673        -0.952456      0.319372      0.250410
O      11.35321      9.72138     15.90071         0.598601     -0.674232     -0.617293
O      11.50456      9.57890      6.85613        -0.061584     -0.010101      0.907289
O      11.48917      9.47846     11.42524        -0.905669     -0.283568      0.357460
O       1.84123      3.81018      2.67449        -0.279582     -0.037453      0.206232
O       2.08505      3.77024     15.94207        -1.710237      0.381411     -0.162698
O       1.92098      0.05388      2.74768        -0.039859     -1.303075      0.369385
O       1.86678      0.01328     15.58943        -0.177903      0.192809      1.006646
O      13.40272      3.71040      2.66766         0.327829      0.981314     -0.164328
O      13.30907      3.77478     15.96597         0.255561     -0.102740     -0.541965
O      13.30699     15.29648      2.74171         0.658149      0.479295     -0.139984
O      13.28821     15.22966     15.78616         1.475681      0.814961     -0.185357
O       1.77108      3.86737      6.94965         0.520300     -0.637683      0.560867
O       1.95268     15.25525      7.03722        -0.253129      1.213889      0.241799
O      13.44731      3.86797      7.08364        -0.385803     -0.417423     -0.012377
O      13.34433      0.01384      7.05717         0.192327     -0.206117      0.138166
O       1.94230      3.87899     11.36672        -0.190573     -0.982174     -0.015335
O       1.78844      0.07815     11.38262        -0.186680     -0.227389      0.273953
O      13.30844      3.87573     11.51157         0.157495     -0.758663     -0.508421
O      13.34256     15.28710     11.56553         0.529084      0.462186     -0.388913
O       1.85642      7.68908      2.77697         0.569876     -0.263593      0.038607
O       1.98214      7.65138     15.80376        -0.030681     -0.037541      0.235767
O      13.28404      7.56995      2.70761         0.750775      0.362958     -0.072503
O      13.18836      7.66213     15.63060         0.188843     -0.737234      0.466548
O       1.84305      7.62291      6.90879         0.184335      1.028660      0.310184
O      13.32303      7.66559      7.01757         0.178880      0.388765      0.140177
O       1.84728      7.66159     11.45643        -0.363697      0.240918      0.079482
O      13.63651      7.76413     11.41553        -0.677036     -1.644056      0.077510
O       1.99160     11.53134      2.61548        -0.413865      0.106910      0.231656
O       1.74781     11.50598     15.74266         0.695645     -0.008824     -0.042707
O      13.50312     11.51143      2.76755        -0.387749     -0.307184     -0.293726
O      13.44683     11.38382     15.97762        -0.390275      1.420283     -0.654494
O       1.81566     11.47787      7.17866        -0.289238      0.249448      0.123163
O      13.33444     11.51857      7.13760         0.634034      0.042754     -0.150078
O       2.03895     11.58566     11.39734        -0.202528     -0.626173      0.020212
O      13.32591     11.47817     11.36532         0.024759      1.430709      0.252922
O       5.83225      3.83940      2.81451        -0.515455      0.048137     -1.063475
O       5.77516      3.83394     15.75630         0.658898     -0.494772      0.365078
O       5.53095      0.00639      2.66953         0.882913     -0.220081      0.250637
O       5.62762     15.29535     15.64621         0.672274      0.207578      0.173403
O       5.69152      3.84197      6.98424         0.314523      0.176946      0.573719
O       5.71570     15.34035      7.16319         0.170725      0.284689     -0.161331
O       5.77851      3.82922     11.51475         0.434173      0.135592     -0.690726
O       5.85407     15.32322     11.40182         0.272345      0.890941      0.034743
O       5.78850      7.76886      2.81923        -0.139374     -1.548477     -0.265117
O       5.59242      7.71252     15.67077         0.318123     -1.347921      0.789189
O       5.50357      7.76338      6.90176         0.653372     -1.741633      0.184771
O       5.65911      7.64586     11.47759         0.440477     -0.422234     -0.353153
O       5.62830     11.54672      2.62534         0.373259     -0.128452      0.297279
O       5.67015     11.46916     15.85293         0.018470      0.878988     -0.775141
O       5.83187     11.57054      7.17769        -0.136345     -0.233568     -0.245181
O       5.72298     11.47333     11.35789        -0.309985     -0.245637      0.246680
O       9.54231      3.76197      2.81732         0.108143     -0.199998     -0.975061
O       9.42028      3.79449     15.77272         0.169711     -0.628537      0.277669
O       9.58984     15.19942      2.80590         0.147320      1.915434      0.092749
O       9.43812      0.03812     15.92719         0.447446     -1.053293     -0.734973
O       9.51158      3.93026      7.23712         0.122717     -0.777456     -0.421279
O       9.69512      0.01744      7.05859        -0.276950      0.214621     -0.176497
O       9.56754      3.84779     11.41740         0.584450     -0.014878     -0.536530
O       9.65619     15.21571     11.35518        -0.051661      1.929489      0.166834
O       9.65110      7.62299      2.65863        -0.171423      0.411534      0.350092
O       9.62261      7.66416     15.82593        -0.435426      0.593429     -0.440853
O       9.59813      7.68016      6.96800         0.143307     -0.635019      0.260925
O       9.38012      7.63158     11.57788         1.805509     -0.002547     -0.365201
O       9.54935     11.50788      2.74303         0.088002      0.001683     -0.536289
O       9.52417     11.52059     15.83910        -0.205651      0.251136     -0.551701
O       9.50882     11.40005      6.97476         0.643145      0.824552      0.482877
O       9.55365     11.46616     11.38592         0.202566     -0.091028      0.375906
