  # total energy = -7882.61407920 
CRSYTAL
PRIMVEC
    15.3600000000000000    0.0000000000000000    0.0000000000000000
     0.0000000000000000   15.3600000000000000    0.0000000000000000
     0.0000000000000000    0.0000000000000000    17.440000000000000
PRESSURE
3.54955 3.44007 3.0014 -0.278645 -0.619739 0.045424
PRIMCOORD
320 1
Pb       3.80102      3.85407      4.38326         0.089061     -0.299418      0.159284
Pb       3.97416      3.80936     17.33253        -0.749687     -0.454714      0.743133
Pb       3.81717     15.33753      4.32889        -0.110694     -0.009457      0.603697
Pb       3.91174      0.03483     17.39438        -0.599195     -0.242652      0.040566
Pb      15.31385      3.83134      4.40119         0.376748     -0.144507     -0.054373
Pb       0.09433      3.84148      0.03542        -0.179144     -0.109348     -0.012590
Pb       0.02886     15.30656      4.31125        -0.162089      0.066580      0.622125
Pb      15.13198     15.31835     17.42522         0.612568     -0.126205      0.244347
Pb       3.77541      3.93778      8.54318         0.046092     -0.277582      0.919990
Pb       3.82312     15.32681      8.81429         0.068764      0.339613     -0.382554
Pb      15.08046      3.88855      8.59392         1.103157     -0.217478      0.898847
Pb      15.28432      0.15491      8.65938         0.239421     -0.356372      0.515500
Pb       3.88613      3.76313     12.93644        -0.467675      0.322699      0.702538
Pb       3.77640     15.23030     12.97040        -0.171127      0.512855      0.031166
Pb      15.31651      3.70313     13.09240         0.577285      0.137173      0.114807
Pb       0.00096      0.03615     12.91012         0.159680     -0.070431      0.394286
Pb       3.91688      7.70200      4.25683        -0.232716     -0.531055      0.317401
Pb       3.72455      7.66633      0.02778        -0.074932     -0.495606      0.244021
Pb       0.17168      7.68007      4.29273        -0.769933      0.058633      0.134676
Pb      15.34415      7.80300     17.31984        -0.570214     -0.869690      0.816093
Pb       3.95655      7.61014      8.68880        -0.394900      0.077652      0.331424
Pb      15.33444      7.62588      8.66479         0.109069      0.316732      0.271585
Pb       3.82743      7.65528     13.06537         0.067525     -0.611197     -0.076996
Pb       0.06090      7.69793     13.07114        -0.573964     -0.324310      0.435261
Pb       3.67288     11.47237      4.30008         0.367712      0.421504      0.205509
Pb       3.99268     11.31979     17.30500        -0.435371      1.048829      0.942049
Pb       0.14902     11.64286      4.15880        -0.825399     -0.461208      0.997888
Pb      15.29584     11.45592     17.32020        -0.344939      0.617939      0.480971
Pb       3.78555     11.59930      8.70437         0.139617     -0.268255      0.161002
Pb       0.00108     11.37096      8.63936        -0.407453      0.388889      0.606315
Pb       3.96753     11.51569     12.97633        -0.680798     -0.086759      0.553212
Pb       0.09395     11.47759     13.12252        -0.300378     -0.000750     -0.026572
Pb       7.68075      3.72324      4.38448         0.101919      0.447973      0.154171
Pb       7.72953      3.91642     17.24338        -0.406150     -0.672281      1.475340
Pb       7.67270      0.06405      4.30202         0.240172     -0.917732      0.559803
Pb       7.43591     15.34626     17.30912         0.756759     -0.347656      0.846278
Pb       7.65542      3.81670      8.67219         0.195045     -0.119465      0.286684
Pb       7.69234     15.26471      8.60332        -0.313775      0.290016      0.374433
Pb       7.81011      3.95285     13.23076        -0.674120     -0.284125     -0.657497
Pb       7.72186      0.11511     13.01114        -0.758568     -0.469885      0.319071
Pb       7.54552      7.55517      4.25785         0.630768      0.150705      0.779969
Pb       7.65500      7.63341     17.42086        -0.071338      0.340562      0.151592
Pb       7.59739      7.83692      8.60898         0.387316     -0.497429      0.291619
Pb       7.62952      7.62053     12.98594         0.075113     -0.153051     -0.018425
Pb       7.65955     11.41231      4.33594         0.162425      0.411008      0.313439
Pb       7.58504     11.63475     17.29021        -0.019010     -0.505094      1.023356
Pb       7.73538     11.47128      8.68074        -0.725365      0.308602      0.046604
Pb       7.86853     11.64609     13.06450        -0.942775     -0.328899      0.088252
Pb      11.58933      3.74980      4.35207        -0.454373      0.398746     -0.045283
Pb      11.52351      3.82868      0.01350         0.268123     -0.252921     -0.034096
Pb      11.56296      0.03155      4.22263        -0.282694     -0.672107      0.716245
Pb      11.43821     15.31646     17.19359         0.173709     -0.334452      1.658055
Pb      11.58413      4.03483      8.65198        -0.508440     -1.165643      0.530345
Pb      11.49627     15.27238      8.61955        -0.365438      0.636173      0.849349
Pb      11.53028      3.72406     13.21747         0.196058     -0.034632      0.056244
Pb      11.40945     15.33401     13.01102         0.600683     -0.016508      0.450373
Pb      11.58260      7.69707      4.20677        -0.149603     -0.305309      0.569742
Pb      11.41855      7.58509     17.43438         0.427171      0.558394     -0.114098
Pb      11.55880      7.66406      8.63628        -0.178797      0.675744      0.293135
Pb      11.42260      7.71054     12.97714         0.055137      0.033397      0.839744
Pb      11.56535     11.39248      4.38377        -0.122295      0.542723     -0.097855
Pb      11.39375     11.48845     17.34837         0.313797      0.272058      0.363805
Pb      11.48647     11.51178      8.81668         0.340090     -0.212674     -0.161368
Pb      11.48222     11.47118     12.93418         0.129632      0.005263      0.814620
Ti       1.99623      1.86272      2.37746        -0.672418      0.696384      0.021445
Ti       1.97938      1.86341     15.44743        -1.116802     -0.238843     -1.487561
Ti       1.91707     13.50679      2.20826        -0.144857     -0.996095     -0.499223
Ti       1.88012     13.44260     15.50345        -0.401256      0.238688      0.355014
Ti      13.54275      1.91397      2.43673        -0.518079     -0.433649     -0.886247
Ti      13.52689      1.88474     15.49383        -0.727523      0.307026      0.661396
Ti      13.39001     13.38426      2.38610        -0.348898      0.129923     -0.547239
Ti      13.42425     13.37583     15.36993        -1.209463      0.395992      0.124915
Ti       1.90691      1.96728      6.80903        -0.016967     -0.895794      0.110045
Ti       1.79903     13.43136      6.86391         0.052461      0.493849     -0.856920
Ti      13.36579      1.88339      6.73736         0.884421      0.231331      0.333683
Ti      13.34765     13.42312      6.79139         0.983248     -0.374064     -0.301425
Ti       1.99134      1.98308     10.99384        -1.502593     -0.776999     -0.133247
Ti       1.83501     13.36336     11.05720         0.224304      0.747577     -0.147601
Ti      13.39629      1.88004     11.14071         0.395288     -0.381077      0.520877
Ti      13.39050     13.36085     11.16175        -0.085123      0.227665     -0.281160
Ti       1.89933      5.67438      2.41046        -0.583917     -0.038225     -0.784836
Ti       1.84333      5.70166     15.42512        -0.091138     -0.209933     -0.218619
Ti      13.42196      5.75101      2.36989         0.015484      0.104418      0.787707
Ti      13.40840      5.70167     15.46204        -0.104586     -0.074072      0.143228
Ti       1.80294      5.76878      6.70538         0.733316      0.046520     -0.660372
Ti      13.36574      5.85106      6.61965         0.322776     -0.483317     -0.758013
Ti       1.86789      5.76422     11.09470        -0.117603     -1.287285     -0.766349
Ti      13.40622      5.64919     11.31296         0.613555      0.399174     -0.161559
Ti       1.90871      9.56491      2.33203        -0.352540     -0.185057     -0.616151
Ti       1.86072      9.59342     15.50081        -0.489984      0.047510     -1.356637
Ti      13.43374      9.55804      2.37562         0.587933      0.310456      0.013677
Ti      13.30074      9.55317     15.40828        -0.456881     -0.148442     -0.251009
Ti       1.97025      9.57439      6.71952        -1.295009      0.034842     -0.665890
Ti      13.44077      9.66621      6.67855        -0.547141     -0.374209     -0.518779
Ti       1.90948      9.56210     11.08895        -0.892679      0.252233     -1.489514
Ti      13.37301      9.49001     11.18239         0.431248      0.777093      0.123581
Ti       5.79000      1.81710      2.43944        -0.322185      0.875620     -0.350879
Ti       5.78124      1.89007     15.32247        -0.771486     -0.305621      0.857436
Ti       5.68371     13.32239      2.45107         1.169168      0.190221      0.526555
Ti       5.62545     13.36002     15.25892         0.532333      0.199646     -0.668295
Ti       5.74082      1.94134      6.76594        -0.232870     -0.477246      0.154654
Ti       5.59225     13.46136      6.66495         1.283657     -0.149326      0.081008
Ti       5.74953      1.89189     11.05377         0.363754      0.173411      0.314571
Ti       5.72474     13.38894     11.05588         0.416801      0.805472     -0.104618
Ti       5.73713      5.63269      2.29686        -0.583077     -0.377851     -0.331492
Ti       5.62911      5.72949     15.49725         0.197278     -0.160011     -1.545312
Ti       5.76673      5.78851      6.74965        -0.037210     -0.150716     -0.029560
Ti       5.72253      5.71673     11.06512         0.191462     -0.641611     -0.122331
Ti       5.77590      9.53815      2.37489         0.362064      0.483539     -0.385220
Ti       5.67970      9.44813     15.34143         0.869943      0.791920     -0.827377
Ti       5.65070      9.63573      6.64658         1.281710     -0.307531     -0.506450
Ti       5.73472      9.59580     11.12585         0.046826     -0.919055     -0.868591
Ti       9.64146      1.91188      2.40116         0.135653     -0.810762      0.192183
Ti       9.56734      1.82833     15.52387         0.698369      0.942942     -1.373131
Ti       9.56882     13.32736      2.41885        -0.230091      0.943951      0.369202
Ti       9.46197     13.40256     15.41420         1.233504      0.214336     -0.483834
Ti       9.60584      1.93090      6.72440        -0.235276      0.049993      0.924894
Ti       9.52969     13.38217      6.68456        -0.243393      0.122569     -0.194138
Ti       9.56116      1.94563     11.14307         0.076182     -0.723370     -2.119162
Ti       9.52865     13.42869     11.09471         0.126386      0.886693      0.739204
Ti       9.54999      5.73920      2.35604         0.323751     -0.873745      0.209661
Ti       9.54957      5.74096     15.48661         0.759637      0.421761      0.384149
Ti       9.58319      5.74920      6.71114        -1.174073     -0.455076     -1.366134
Ti       9.65245      5.63586     11.11749        -0.935097      0.625150     -0.007348
Ti       9.60073      9.52013      2.35497        -0.191558      0.626813     -0.736869
Ti       9.42989      9.58741     15.41199         1.137205     -0.491897      0.368736
Ti       9.61970      9.60838      6.74630        -0.143724     -0.330688      0.515995
Ti       9.47295      9.51804     11.02926         1.197505      0.525757     -0.210769
O       2.02327      1.94301      0.63919        -0.084090     -0.186506     -0.468053
O       1.91071      1.86249     13.64033         0.164740     -0.266584      0.644193
O       1.86813     13.43620      0.48057         0.243824      0.063831     -0.575589
O       1.81298     13.42465     13.78231        -0.040160      0.095761     -1.823263
O      13.50857      1.85315      0.68549        -0.073253      0.207167     -0.463943
O      13.44574      1.88899     13.78885        -0.000651      0.184773     -1.941788
O      13.33964     13.38870      0.65438         0.120025      0.097779     -0.962112
O      13.41303     13.42829     13.64439         0.136831     -0.191476     -0.701621
O       1.96062      1.90067      5.08619        -0.127157      0.088147     -1.356930
O       1.91540     13.33015      5.10422        -0.165706      0.075698     -0.882302
O      13.51573      1.86324      5.04200        -0.114215      0.081981     -2.206143
O      13.49731     13.40383      5.07830        -0.254240     -0.006579     -1.239448
O       1.81902      1.91527      9.24225         0.522241      0.040227     -0.287592
O       1.93893     13.26315      9.32273        -0.096620      0.232647     -1.016931
O      13.34568      1.91347      9.44849         0.111375      0.095101     -2.787684
O      13.22924     13.31914      9.42416         0.139762      0.351163     -0.881712
O       1.79763      5.69835      0.63634         0.535573     -0.304879      0.053710
O       1.84261      5.75392     13.69079         0.249298      0.033392     -0.420104
O      13.40192      5.68487      0.66382         0.068408      0.044071     -1.599736
O      13.43608      5.53998     13.72186        -0.220245      0.496302     -0.418448
O       1.83788      5.72612      4.93372        -0.057626      0.076108     -0.237202
O      13.31440      5.84140      4.89330         0.244810     -0.196118     -0.687377
O       1.76835      5.82970      9.32000         0.114884     -0.000377     -0.086982
O      13.35419      5.62384      9.56244        -0.037368      0.265738     -1.461210
O       1.92211      9.41507      0.55874         0.010499      0.726150     -0.679941
O       1.74536      9.51286     13.73818         0.561151      0.215939     -0.336114
O      13.46132      9.48749      0.65264        -0.022692      0.315108     -1.172043
O      13.23411      9.51159     13.65094         0.196009      0.124819     -0.042580
O       1.79103      9.71489      4.93828         0.831333     -0.426804     -0.287301
O      13.29216      9.64768      4.92966         0.322397     -0.114156     -0.578985
O       1.81081      9.60027      9.28275         0.245391     -0.291110      0.867516
O      13.35852      9.48926      9.45795         0.015908      0.090686     -1.676814
O       5.77534      1.73110      0.69341        -0.076544      0.116870     -1.135131
O       5.66267      1.84916     13.64198         0.201246      0.170603     -1.667615
O       5.85115     13.27666      0.72552        -0.367356      0.167585     -1.657475
O       5.71997     13.34307     13.49492        -0.215037     -0.176442      0.177606
O       5.78155      1.89233      5.02536        -0.216356      0.050689     -1.194797
O       5.63816     13.43436      4.91358        -0.401097      0.163149     -0.187349
O       5.63076      2.01266      9.34686         0.479856     -0.319188     -1.544756
O       5.67138     13.39446      9.29682        -0.187814     -0.168768     -0.435900
O       5.59540      5.66122      0.51768         0.498424      0.034243     -0.160533
O       5.54145      5.69565     13.72241         0.450751      0.384333      0.231580
O       5.76481      5.88173      5.00812        -0.018837     -0.295204     -0.851077
O       5.65506      5.76884      9.31570         0.115157      0.160611     -1.089412
O       5.70117      9.54081      0.60610         0.033195      0.235721     -0.384959
O       5.62941      9.51470     13.55140         0.195189     -0.317587      0.521157
O       5.65295      9.43266      4.87509         0.072338      0.090887     -0.218155
O       5.69709      9.52273      9.35117        -0.082349     -0.024826     -0.303323
O       9.60879      1.69844      0.70327        -0.183361      0.494735     -1.578258
O       9.50005      1.91295     13.72593         0.086530      0.093499      0.082135
O       9.51614     13.35992      0.69223        -0.173047      0.103926     -1.539827
O       9.47799     13.34846     13.66084        -0.164325      0.238999     -0.892596
O       9.51611      1.97189      5.00986         0.190643      0.244593     -1.478927
O       9.56748     13.10655      4.97672        -0.032420      0.649192     -0.291369
O       9.50473      1.90917      9.36049         0.170772      0.011165      0.417761
O       9.45602     13.51362      9.39391         0.333460     -0.016393     -1.894036
O       9.45096      5.69924      0.59193         0.171963      0.475298     -0.929939
O       9.54841      5.68506     13.77330        -0.242335     -0.217606     -1.857759
O       9.47818      5.51826      4.94604         0.294327      0.654775      0.225316
O       9.69860      5.59314      9.39421         0.159791      0.360953     -0.831727
O       9.57723      9.40566      0.60349        -0.267313      0.244086     -0.482224
O       9.49428      9.53534     13.68204        -0.074383      0.386235     -1.043946
O       9.57128      9.67248      5.03920         0.359407      0.049752     -1.526423
O       9.56076      9.47299      9.27523         0.002370      0.307376     -0.474845
O       3.82447      1.91073      2.77415         0.711290     -0.576536      0.479709
O       3.82470      1.79432     15.81996         1.269968      0.569087      0.257634
O       3.81097     13.48246      2.64565        -0.895756     -0.223945      0.544119
O       3.78930     13.26568     15.65207         0.534091      0.142133      0.622242
O       0.05147      1.91376      2.83093        -0.166338      0.231589      0.147655
O       0.02237      1.89535     15.88487        -0.130919     -0.487948      0.099297
O       0.03535     13.45039      2.59997        -0.540168     -0.270287      0.663583
O      15.23286     13.45880     15.86835         0.353019     -0.126181      0.100793
O       3.83564      2.01952      7.09956        -0.568032     -0.446550      0.490512
O       3.75653     13.46913      7.18544        -0.122566     -0.250333      0.325518
O      15.30947      1.94611      7.13440        -0.382134     -0.075104      0.436340
O      15.28885     13.41740      7.17066        -0.387601     -0.171683      0.545797
O       3.86914      1.77560     11.34626        -1.129718      0.509334      0.623804
O       3.79548     13.33779     11.41974        -0.131752     -0.103532      0.327675
O      15.34173      1.91667     11.35862         0.352137     -0.401581      0.715333
O      15.31604     13.42872     11.43553         0.084290     -0.388614      0.201773
O       3.80784      5.74208      2.75577         0.542499      0.088480      0.186048
O       3.76332      5.65818     15.85556        -0.129976      0.335039      0.254064
O      15.31914      5.66010      2.79632         0.810987      0.073201      0.242268
O      15.33122      5.73200     15.84980        -0.148298     -0.074102      0.130123
O       3.74529      5.85222      6.98097         0.203267     -0.126338      0.644809
O      15.25304      5.76823      7.10586        -0.150726      0.055213      0.031090
O       3.81580      5.70701     11.42949        -1.041350      0.301918      0.274161
O      15.31487      5.68119     11.61196         0.157221      0.166840     -0.088306
O       3.87443      9.54273      2.67511        -1.058524     -0.269994      0.315071
O       3.82287      9.58688     15.81135        -0.612480     -0.323797     -0.114389
O       0.03336      9.53456      2.72910         0.169628      0.436967      0.091045
O      15.23263      9.60553     15.77024         0.385155     -0.343672      0.280066
O       3.81490      9.39750      7.05852        -0.492901      0.451837      0.090878
O      15.28581      9.63613      7.03883         0.297561     -0.035625      0.444468
O       3.81653      9.57926     11.43887        -1.017135     -0.464761      0.217585
O      15.29217      9.62373     11.52089         0.870164     -0.379586      0.242865
O       7.73375      1.89741      2.84860        -0.841457      0.230339     -0.200566
O       7.64555      1.83633     15.81806        -0.315633      0.216331      0.128867
O       7.59898     13.31657      2.80111         0.524299      0.329899      0.460339
O       7.56257     13.38358     15.67872        -0.220499      0.183368      0.578506
O       7.63352      1.99298      7.04511         0.019952     -0.148246      0.668331
O       7.56489     13.38151      7.06795         0.194714     -0.054500      0.279643
O       7.63979      1.86663     11.46011        -0.128198      0.259043      0.416195
O       7.59223     13.41672     11.37694         0.625308     -0.061277      0.673779
O       7.61417      5.62731      2.69463         0.337080      0.110837      0.217845
O       7.62346      5.73249     15.80147        -0.178713      0.196254      0.159081
O       7.66486      5.77089      7.12163        -0.107785     -0.222485      0.267420
O       7.69559      5.63797     11.44635        -0.300796      0.560041      0.622800
O       7.70484      9.60576      2.71336        -0.711795     -0.071481      0.259962
O       7.54644      9.55717     15.72930         0.345526     -0.403310      0.359191
O       7.62738      9.62362      7.00657        -0.438004      0.123986      0.667467
O       7.63583      9.45110     11.27373        -0.335731      0.194010      0.934144
O      11.57570      1.87077      2.82995        -0.061370      0.198054      0.054760
O      11.46931      1.94213     15.85792        -0.122350     -0.017073      0.119907
O      11.49430     13.49014      2.76760         0.017448     -0.255901      0.344326
O      11.38425     13.41519     15.70831         0.271121     -0.200060      0.460089
O      11.53801      1.91495      6.98999        -1.430979     -0.040554      0.587014
O      11.44729     13.48088      7.14431        -0.675219     -0.369663      0.062011
O      11.51004      1.93126     11.46125        -1.204830     -0.080392      0.879082
O      11.45371     13.46630     11.55759        -0.430564     -0.249106     -0.109554
O      11.48805      5.79354      2.66371        -0.109675      0.173301      0.392144
O      11.45795      5.66091     15.80738         0.213821      0.131905      0.539754
O      11.47011      5.77343      7.03900         0.492923      0.080948      0.459776
O      11.48836      5.65332     11.61574        -0.464819     -0.041831      0.265267
O      11.52881      9.54802      2.64210        -0.601638     -0.325369      0.649503
O      11.42994      9.57086     15.96731        -0.175762      0.074006     -0.477378
O      11.50320      9.71155      7.11572        -0.427901     -0.865376      0.490753
O      11.43947      9.59290     11.45735        -0.873582     -0.171004      0.232250
O       2.02134      3.75425      2.89202        -0.838089      0.736089     -0.246460
O       1.86174      3.72775     15.78169         0.307013      1.153507      0.416151
O       1.80024     15.31972      2.74053         0.929811      0.481960      0.107255
O       1.94041     15.31020     15.89600        -0.065131      0.248650      0.120430
O      13.44146      3.83779      2.75416        -0.213049     -0.588948      0.561684
O      13.42179      3.78530     15.85912        -0.041700      0.460938      0.564486
O      13.48441     15.30640      2.77513         0.132842      0.611812      0.412395
O      13.30402     15.35128     15.78074         0.586411     -0.522173      0.332406
O       1.82653      3.86038      7.08591        -0.044745      0.904566      0.175661
O       1.80376     15.35550      7.06509         0.309662     -0.005002      0.862990
O      13.38829      3.87760      6.96145        -0.176322      0.274954      0.506199
O      13.34166      0.00187      7.13745         0.466020     -0.377450      0.500021
O       1.86303      3.79913     11.45940         0.523331      0.238294     -0.029024
O       1.90574     15.31793     11.35474         0.080141     -0.273491      0.295583
O      13.44025      3.75913     11.60384        -0.418993      0.145663      0.397751
O      13.35538     15.32445     11.52993         0.181633     -0.094875      0.099219
O       1.88292      7.61948      2.59246         0.220693      0.321404      0.998519
O       1.86052      7.66754     15.76615         0.346877     -0.135469      0.473491
O      13.51706      7.67792      2.73269        -0.356934     -0.457789      0.530265
O      13.32377      7.63162     15.86288         0.175075     -0.034478     -0.152581
O       1.71623      7.70513      6.98513         0.126819     -0.320560      0.421785
O      13.38894      7.71493      6.98350        -0.290649     -0.194223      0.770962
O       1.76064      7.58181     11.47549         0.711607      1.899937      0.187361
O      13.32853      7.64368     11.49981         0.196891     -0.945857      0.603379
O       1.84515     11.51572      2.59396         0.924294     -0.230802      0.212243
O       1.67209     11.51614     15.71246         0.791363     -1.006989      0.681696
O      13.34618     11.49067      2.68230         0.524124     -0.022082      0.526070
O      13.29620     11.48981     15.72423         0.361105     -0.149533      0.509942
O       1.83762     11.47096      7.12582         0.703022     -0.312593      0.447423
O      13.24830     11.50295      7.13270         0.629040      0.488388      0.487480
O       1.86841     11.46158     11.45881         0.041031     -0.247290      0.435562
O      13.29338     11.44492     11.48305         0.421002      0.794545      0.381799
O       5.70552      3.76632      2.70407        -0.035728      0.238321      0.381278
O       5.79044      3.79147     15.68707        -0.299032     -0.300830      0.607155
O       5.66924     15.34756      2.79506         0.603104     -0.600210      0.246679
O       5.70975     15.28287     15.64051        -0.174935     -0.200094      0.688283
O       5.67699      3.86232      7.14798         0.307121      0.611517     -0.212395
O       5.64211     15.33425      7.13585         0.156625      0.497768      0.127492
O       5.65864      3.83013     11.47749         0.515713     -0.574619      0.109471
O       5.70687     15.30066     11.44439        -0.004545     -0.101774     -0.035666
O       5.86253      7.57026      2.60732        -0.627086      0.592300      0.451893
O       5.71365      7.60064     15.85933        -0.307384      0.726208     -0.103362
O       5.78029      7.68522      7.09501        -0.249976      0.042285      0.508825
O       5.68894      7.54681     11.51550         0.151081      1.282822      0.285491
O       5.64254     11.43635      2.88374         0.151584     -0.094175     -0.351822
O       5.75160     11.44640     15.73827        -0.279966     -0.111299      0.049037
O       5.54844     11.47831      6.91959         0.080135      0.161257      0.496632
O       5.78519     11.42079     11.46321        -0.177227      0.736258      0.050930
O       9.73216      3.83299      2.63347        -0.455038     -0.373344      0.562145
O       9.56721      3.81050     15.87594        -0.288489     -0.292008      0.035467
O       9.55826     15.33726      2.89718         0.058339     -0.209799      0.031520
O       9.54684     15.33755     15.79419        -0.489617     -0.550102      0.044230
O       9.57357      3.81723      7.15883         0.167774      0.472183      0.219581
O       9.45108      0.00742      7.04339         0.461515     -0.518786      0.093251
O       9.48805      3.77813     11.52265         0.492369      0.515175      0.668311
O       9.50160     15.35293     11.56181         0.479043      0.054022     -0.054949
O       9.51697      7.62742      2.77611         0.075942      0.005907      0.085960
O       9.59285      7.69537     15.70633        -0.452582     -0.765811      0.844628
O       9.55961      7.66775      7.05557         0.280836     -0.021269      0.248320
O       9.53603      7.69601     11.49244         0.281248     -1.378897      0.047774
O       9.63547     11.46899      2.69617        -0.016397     -0.762988      0.365852
O       9.44537     11.51901     15.75666         0.266941     -0.568561      0.367016
O       9.49983     11.52977      7.23309         0.576279     -0.005771      0.163177
O       9.48797     11.55694     11.34523         0.169859     -1.328431      0.420924
