  # total energy = -7880.79752097 
CRSYTAL
PRIMVEC
    15.3600000000000000    0.0000000000000000    0.0000000000000000
     0.0000000000000000   15.3600000000000000    0.0000000000000000
     0.0000000000000000    0.0000000000000000    17.440000000000000
PRESSURE
0.774393 0.495823 -3.01453 -0.08809 -0.3624 -0.058933
PRIMCOORD
320 1
Pb       3.94112      3.79159      4.37555        -0.201286      0.332980      0.116765
Pb       3.87675      3.81365      0.02800        -0.263885     -0.392783     -0.562371
Pb       3.77762      0.03436      4.34764         0.139738     -0.435705      0.371005
Pb       3.80817     15.28550     17.34547         0.030008      0.387345     -0.371872
Pb       0.08124      3.81779      4.34857        -0.382823     -0.002796      0.102066
Pb       0.03945      3.83871      0.00640         0.034915      0.296613     -0.458481
Pb       0.08839      0.03656      4.37637        -0.580645     -0.430710     -0.117928
Pb      15.24561      0.09058     17.35849         0.161261     -0.728473      0.223188
Pb       3.75009      3.83240      8.67293        -0.285218      0.252366     -0.382862
Pb       3.74614     15.29281      8.67140         0.173820      0.007223     -0.329034
Pb      15.11287      3.95219      8.65656         1.219422     -0.413814     -0.075008
Pb      15.25126     15.27586      8.74019         0.071467      0.664460     -0.878649
Pb       3.98323      3.64970     13.03554        -0.713545      0.600853      0.131484
Pb       3.80264      0.00576     12.94526         0.301680     -0.365855      0.394125
Pb       0.02979      3.77045     13.01347        -0.210560      0.598895      0.299000
Pb      15.27118     15.19908     13.03978         0.049669      0.141567     -0.117534
Pb       3.84013      7.68032      4.31489        -0.144669      0.055649     -0.174291
Pb       3.80534      7.65858      0.03673        -0.376272     -0.082872     -0.474057
Pb       0.11701      7.73037      4.28019        -0.463307      0.076268      0.053110
Pb       0.02885      7.69997      0.05514         0.054802     -0.235907     -0.136307
Pb       3.74751      7.68323      8.63314         0.120666     -0.159322     -0.139996
Pb      15.24224      7.64566      8.64720         0.276742     -0.091559      0.241302
Pb       3.90152      7.57765     13.07799        -0.341110     -0.033127     -0.332852
Pb      15.33509      7.66987     13.05734         0.202439     -0.176600      0.593614
Pb       3.81421     11.52060      4.32287        -0.158568      0.110309     -0.170710
Pb       3.87832     11.56844     17.42033        -0.203370      0.000660     -0.261812
Pb       0.09659     11.55743      4.29288        -0.113056     -0.092489     -0.537402
Pb      15.24009     11.47884     17.40807         0.163022      0.231282      0.266844
Pb       3.85739     11.45585      8.67108         0.360986      0.376943     -0.137709
Pb       0.02936     11.48934      8.72326        -0.503007     -0.140831     -0.081665
Pb       3.90453     11.37388     13.01661         0.001110      0.494904     -0.245336
Pb       0.14910     11.46099     13.01281        -0.236131      0.467253      0.424693
Pb       7.64728      3.80688      4.18697         0.629404     -0.462420      1.329160
Pb       7.71043      3.80088      0.06177        -0.163755     -0.227335     -0.428734
Pb       7.64097     15.31038      4.40905         0.408575      0.234770     -0.206874
Pb       7.51059      0.00510     17.36319         0.509907     -0.183327     -0.039926
Pb       7.48719      3.92054      8.67206         0.571337     -0.497464      0.004289
Pb       7.66675      0.03560      8.77242         0.074176     -0.150387     -0.660057
Pb       7.81983      3.88020     13.00843        -0.450762      0.219563      0.457443
Pb       7.70404      0.07961     12.95043         0.209377     -0.707140      0.636216
Pb       7.72172      7.59713      4.32515        -0.021294      0.469716      0.057979
Pb       7.57505      7.73000      0.02852         0.615123     -0.070623     -0.532754
Pb       7.73677      7.59677      8.72763         0.177632      1.142918      0.158832
Pb       7.73050      7.71305     13.10993        -0.569688     -0.135932     -0.348132
Pb       7.63913     11.41255      4.35167        -0.013649      0.308344     -0.083500
Pb       7.62671     11.63026     17.26021        -0.164401     -0.526310      0.717235
Pb       7.71954     11.57379      8.70560        -0.006805     -0.313076     -0.170988
Pb       7.76029     11.61013     12.93973        -0.309663     -0.513763      0.182774
Pb      11.48394      3.74077      4.28701         0.435272      0.004465     -0.205780
Pb      11.64877      3.87346      0.16012        -0.301400      0.186916     -0.653513
Pb      11.65304     15.30683      4.37425        -0.284867      0.171938      0.025636
Pb      11.24151     15.26601      0.03486         0.563380      0.048829     -0.228216
Pb      11.50206      3.85958      8.61611        -0.045629     -0.499177      0.848652
Pb      11.44082      0.06491      8.73738         0.296176     -0.198708     -0.032785
Pb      11.49523      3.74177     12.99894         0.171354     -0.026805      0.464409
Pb      11.44440     15.28405     13.11673         0.145924      0.311343     -0.503930
Pb      11.57617      7.50858      4.35892         0.226585      0.565884     -0.601120
Pb      11.42539      7.73515     17.42604        -0.119123     -0.121123     -0.385062
Pb      11.62236      7.70842      8.64910        -0.877605      0.105692      0.169883
Pb      11.36314      7.54821     13.16007        -0.040120      0.667781      0.330566
Pb      11.48775     11.46705      4.25379         0.375038     -0.032692      0.130807
Pb      11.41092     11.48041     17.35455         0.053885     -0.159837     -0.097955
Pb      11.43636     11.41218      8.67759        -0.044148      0.014639     -0.234083
Pb      11.59103     11.49731     13.03762        -0.639135     -0.073658      0.492369
Ti       1.93830      1.85892      2.35320        -0.440467      0.962597     -1.616978
Ti       1.85599      1.91490     15.33738         1.390322      0.221969      0.277630
Ti       1.95004     13.49441      2.27645        -0.590138     -0.991204     -0.360655
Ti       1.84169     13.47129     15.36453         0.869718     -0.366035     -0.572305
Ti      13.50040      1.84262      2.24658        -0.555813      0.090920      1.110202
Ti      13.35138      1.80357     15.50941        -1.008400      1.083807     -1.694231
Ti      13.39380     13.41667      2.32359         1.202225      0.097811     -1.090613
Ti      13.45438     13.39032     15.33599        -0.575282     -0.750534      0.565791
Ti       1.87324      1.93137      6.65492        -0.552635      0.329609      1.334233
Ti       1.86546     13.37921      6.71398         1.098945      0.874196     -1.363253
Ti      13.37369      1.90870      6.66072         1.363927     -0.322820     -1.640001
Ti      13.39198     13.38581      6.64391         0.141630      0.789028     -0.304120
Ti       1.84736      1.96284     10.95368         0.806907      0.520575     -2.018233
Ti       1.94069     13.57132     10.99161         0.328748     -1.682531      0.686322
Ti      13.40941      1.92929     11.06539        -0.836306     -0.449979     -0.491691
Ti      13.41997     13.37741     11.00314        -0.767075      1.136277      1.321900
Ti       1.89043      5.66705      2.42762         0.488550      1.500484     -0.685036
Ti       1.90448      5.77587     15.43762        -0.334952     -0.552905     -0.970413
Ti      13.47161      5.67898      2.27722        -0.454311      0.578339      0.782612
Ti      13.36027      5.72628     15.39007         0.303923     -0.070099     -0.163319
Ti       1.90050      5.79338      6.55981        -0.384846     -1.666496     -0.503788
Ti      13.37567      5.82287      6.63535         0.810744     -0.977477     -1.175993
Ti       1.85553      5.75527     11.01952         0.851473      0.333768     -0.415532
Ti      13.42984      5.86745     11.09863         0.014040     -0.749648     -0.425307
Ti       1.95004      9.59133      2.23807        -0.668426      0.018826      0.931951
Ti       1.85737      9.64515     15.36567         0.409521     -0.304176      1.403495
Ti      13.38708      9.56898      2.30603         0.693238     -0.606931      0.148762
Ti      13.40097      9.55712     15.41074        -0.699663     -0.599891     -0.536480
Ti       1.80882      9.59805      6.74443         0.861155     -0.069453     -1.692293
Ti      13.42247      9.65316      6.59298        -0.893701     -0.409951     -1.047814
Ti       1.77762      9.57956     11.00321         0.859517     -0.387979     -0.984221
Ti      13.30515      9.65239     11.11356         0.508393     -0.552650      0.138433
Ti       5.74109      1.82146      2.35770         0.327706      0.534032     -0.482472
Ti       5.81798      1.92804     15.33651        -1.117186     -0.313961     -1.016911
Ti       5.75483     13.44835      2.27171        -0.833344     -0.563630     -0.692499
Ti       5.66204     13.40883     15.28362         0.054224      0.195139     -0.838476
Ti       5.71436      1.96474      6.73659        -0.030246     -0.334124     -1.735107
Ti       5.84932     13.45838      6.64786        -0.250675     -0.483471      1.100828
Ti       5.82987      1.94643     11.07307        -0.783310     -0.718544     -0.634408
Ti       5.81635     13.41080     11.01500        -0.454291     -0.370522     -0.431849
Ti       5.82522      5.73862      2.32175        -1.359239      0.176079      0.253992
Ti       5.71998      5.70418     15.38573         0.544223      0.288483     -0.436522
Ti       5.77091      5.89526      6.63710        -1.548191     -0.698159     -1.105491
Ti       5.73721      5.76014     11.01270        -0.295681      0.253024     -0.672582
Ti       5.77941      9.58279      2.31703        -0.710752      0.966884     -0.025117
Ti       5.64569      9.53930     15.34164         0.213061      0.285407     -1.251782
Ti       5.76738      9.63011      6.67035         0.058688      0.740818      0.230108
Ti       5.59565      9.52077     10.95604         1.813309      0.530306      0.020117
Ti       9.65063      1.79438      2.40274        -0.229025      0.127269     -0.788565
Ti       9.59287      1.94466     15.40669        -0.431417     -1.314777     -0.465554
Ti       9.59797     13.38025      2.28277        -0.826988      0.484168     -0.849701
Ti       9.53789     13.43814     15.38553         0.197630      0.212262     -0.594600
Ti       9.59052      1.94537      6.71840        -1.066309     -0.507313     -0.645768
Ti       9.75165     13.40746      6.64485        -1.702502      0.003477      1.289134
Ti       9.60881      1.92685     10.98877         1.121774     -0.358543     -1.265457
Ti       9.65489     13.40546     10.95034        -0.524666     -0.165783      0.866647
Ti       9.62805      5.76539      2.30755         0.478908     -0.292154     -1.707008
Ti       9.50261      5.64104     15.44997         0.631108      1.479733     -0.361360
Ti       9.60895      5.76122      6.66849        -0.052536      0.058603      0.178479
Ti       9.61194      5.80916     11.00497        -0.858851     -0.281342      0.958376
Ti       9.56669      9.57533      2.32707         0.286840     -0.540835     -1.063016
Ti       9.41442      9.56278     15.38034         1.744565     -0.347627     -0.619552
Ti       9.62211      9.56878      6.48263        -0.672616      0.393367      0.415167
Ti       9.53222      9.56750     11.07583        -0.926636     -0.166024     -0.677772
O       1.95351      1.89003      0.54387        -0.136011     -0.316411      0.755992
O       1.96655      1.93986     13.56437        -0.355136      0.258336      0.186155
O       2.06808     13.50112      0.48037        -0.554151      0.196208      0.176921
O       1.89473     13.55608     13.59359        -0.352248     -0.359057     -0.617816
O      13.45904      1.80332      0.47798         0.024644     -0.032246     -0.728982
O      13.20528      1.89412     13.67649         0.801273     -0.102968      1.170320
O      13.54346     13.45935      0.49492        -0.217742     -0.192962      1.685966
O      13.43398     13.23343     13.53659        -0.023906      0.529034      1.225962
O       1.90970      2.01910      4.88631        -0.278923     -0.573549     -0.591684
O       1.95283     13.44576      4.88111        -0.345542     -0.362110      1.188148
O      13.49047      1.87909      4.81702        -0.314552      0.162453      1.832616
O      13.24215     13.42929      4.85362         0.569346     -0.147816      0.911386
O       1.90684      1.92547      9.09117         0.124495     -0.096418      1.903395
O       1.90927     13.53850      9.23387        -0.550153     -0.197208     -0.060233
O      13.24184      1.83275      9.28481         0.638991      0.239082      0.321129
O      13.30514     13.59904      9.27693         0.489529     -0.496059     -0.327652
O       1.88766      5.90850      0.65107         0.025864     -0.503278     -0.389593
O       1.80161      5.64176     13.63494         0.184404      0.281163      1.199071
O      13.32270      5.59573      0.51193         0.405417      0.391456      0.208558
O      13.51215      5.65320     13.57276        -0.527494      0.269917      0.997100
O       1.80009      5.67265      4.74735         0.305408      0.272561      0.893667
O      13.27897      5.80068      4.83039         0.059558     -0.434173      0.884428
O       1.85940      5.89042      9.21819        -0.060183     -0.285646      0.570913
O      13.48089      5.71025      9.25104        -0.350300      0.688891      1.783781
O       1.86746      9.50283      0.50041         0.301448     -0.036613     -0.932314
O       1.90001      9.52765     13.62483        -0.046565      0.337247     -0.203775
O      13.39453      9.50368      0.52900         0.129131      0.210748      0.327081
O      13.43896      9.66174     13.61231        -0.181681      0.099034      0.474517
O       1.78392      9.68233      4.92426         0.121100     -0.046484      1.152536
O      13.51133      9.54024      4.83120        -0.216964      0.348323      0.293541
O       1.64897      9.43426      9.14749         0.604684      0.426409      1.116525
O      13.35506      9.60289      9.36930        -0.106648     -0.120111     -0.988172
O       5.84874      1.93387      0.56374        -0.318288     -0.082196      1.011545
O       5.81730      1.97930     13.47302        -0.110313     -0.469520      1.133009
O       5.62967     13.43073      0.44334        -0.011835      0.043759      0.750216
O       5.63252     13.39499     13.47914         0.371977     -0.152456      0.916631
O       5.64921      1.89531      4.83263         0.545107     -0.087610      1.726718
O       5.76370     13.44540      4.87605        -0.087254      0.003829      0.165205
O       5.76740      1.99916      9.26663         0.203279     -0.015402      0.648150
O       5.85930     13.36279      9.23018        -0.141898      0.291189      0.709253
O       5.72806      5.74368      0.53427         0.398988      0.108882      0.917721
O       5.91189      5.76518     13.61983        -0.914548     -0.228408      0.210560
O       5.67187      5.81764      4.80874         0.680803      0.119651      1.071551
O       5.57314      5.78678      9.17332         0.421681     -0.155474      0.979447
O       5.76695      9.53711      0.55376        -0.132193     -0.050649      0.062388
O       5.65793      9.53814     13.49834        -0.214040      0.123718      1.356596
O       5.70754      9.74207      4.90172         0.083063      0.082058     -0.334337
O       5.64331      9.59358      9.16068        -0.113863     -0.452407      0.610110
O       9.57215      1.78649      0.57803        -0.167084      0.345838      1.659674
O       9.51902      1.89096     13.60242         0.353075     -0.088470      0.656958
O       9.43824     13.50344      0.43855         0.683014     -0.393072      1.717233
O       9.48655     13.40679     13.57142         0.335701      0.068844      1.371100
O       9.42189      1.95949      4.90946         0.568409     -0.135564      1.026393
O       9.71990     13.27533      4.93485        -0.137918      0.390832     -1.051403
O       9.61179      1.86840      9.15801        -0.028120      0.093967      1.342589
O       9.61782     13.26382      9.19228         0.320797      0.412281     -0.271012
O       9.54989      5.80290      0.46310        -0.062408     -0.604106      1.200481
O       9.41733      5.70736     13.62264         0.702148      0.220183      0.844357
O       9.63285      5.79900      4.88329         0.010948     -0.381328      0.987203
O       9.52427      5.99987      9.28813         0.428527     -0.374304     -1.231156
O       9.44662      9.55696      0.49776         0.135805      0.018732      1.556537
O       9.51652      9.56917     13.53249        -0.180982     -0.151617      1.190046
O       9.67715      9.68950      4.69309        -0.537861     -0.480644      0.657856
O       9.42622      9.53423      9.28431         0.892774     -0.165905      0.033724
O       3.77418      1.97824      2.77483         1.065151      0.054533     -0.286712
O       3.91041      1.92699     15.78312        -0.782010      0.046798     -0.122155
O       3.74331     13.49378      2.71026         1.152415     -0.084516      0.215127
O       3.76014     13.41093     15.62070         0.563295     -0.338943      0.714527
O      15.33244      1.77899      2.65272         0.554215      0.238319      0.181070
O      15.28849      1.96282     15.76043         0.680327     -0.337500     -0.131497
O      15.31620     13.47637      2.80223         0.193832      0.273538     -0.317272
O      15.34093     13.31536     15.70834        -1.259561      0.917869      0.134927
O       3.82127      1.92525      6.96954        -0.189184     -0.001490      0.555014
O       3.76802     13.25438      7.16466         0.631358      0.547468     -0.369860
O      15.32658      1.87975      7.05918        -0.516958     -0.370732      0.027263
O      15.31863     13.41846      7.07657        -0.697272     -0.005810      0.150110
O       3.87124      1.79818     11.32434        -0.049193      0.470905      0.215933
O       3.82094     13.56635     11.33019        -0.165675      0.141895     -0.147797
O      15.33446      2.03213     11.28655        -0.247557     -0.277222      0.284427
O      15.28406     13.28063     11.53520         0.773328      0.988018     -0.937615
O       3.79365      5.68654      2.71578         1.694117      0.338532      0.027059
O       3.83193      5.65496     15.82018         0.019157      0.435006     -0.049327
O      15.33221      5.75704      2.75271        -0.894530     -0.144333     -0.347255
O      15.27682      5.79970     15.91125         0.413458     -0.468575     -0.245224
O       3.78460      5.65581      6.92934        -0.218706      0.522373      0.272024
O      15.24621      5.78915      7.05664         0.435226      0.011523     -0.138555
O       3.78801      5.70225     11.40850         0.580069      0.292105      0.171982
O      15.30209      5.71517     11.55866         0.070153     -0.402739     -0.705267
O       3.78321      9.59560      2.69479         1.170564     -0.203867      0.147649
O       3.79966      9.62768     15.78649        -0.786708      0.202421     -0.030655
O       0.09341      9.47823      2.62234        -1.485437      0.544306      0.225723
O      15.25214      9.40195     15.82576         0.857871      0.526576     -0.266498
O       3.76170      9.63784      6.98366        -0.697164      0.170000      0.474796
O      15.18148      9.54796      7.06954         1.660451      0.117239      0.467556
O       3.75768      9.44605     11.39993        -0.337330      0.442272     -0.175670
O      15.35185      9.72596     11.43776         0.053880      0.041362      0.003867
O       7.66121      1.79499      2.87561        -0.430087     -0.011859     -0.795048
O       7.62317      1.85115     15.85861         0.037641      0.223279     -0.093818
O       7.58232     13.49370      2.62856         0.775150     -0.134891      0.298138
O       7.66719     13.37314     15.74182        -1.184246      0.507754     -0.374830
O       7.66037      1.88447      7.24067        -0.516998      0.091890     -0.638084
O       7.78510     13.38149      7.00749        -0.988651      0.921988     -0.040043
O       7.82934      1.87908     11.51053        -1.952381      0.105805     -0.861416
O       7.73627     13.38881     11.38495        -0.471230     -0.136033     -0.103499
O       7.77269      5.82588      2.73246        -1.858338     -0.343514     -0.141869
O       7.65028      5.82658     15.75695        -0.449824     -0.265946      0.697384
O       7.59526      5.77224      7.16833         0.596799      0.332234     -0.851273
O       7.69431      5.76990     11.32954        -1.391624     -0.460290     -0.084497
O       7.67972      9.50631      2.75278         0.024823      0.725000      0.084507
O       7.58656      9.59571     15.79648        -0.530833     -0.314798     -0.133513
O       7.64352      9.43825      6.87622         0.329183      0.314657      0.066330
O       7.64961      9.47893     11.31577        -0.982913      0.364432      0.470605
O      11.63326      1.83935      2.75456        -2.382141      0.408828     -0.157387
O      11.42264      1.78164     15.74534         0.399884      0.223680      0.515673
O      11.46767     13.42487      2.73490        -0.163547     -0.384475     -0.670915
O      11.51747     13.50274     15.83219        -0.879447     -0.973989     -0.531757
O      11.48315      2.01983      6.98408         0.096151      0.248758      0.089705
O      11.56644     13.44456      7.15606        -0.397879     -0.651723     -0.043106
O      11.49053      1.85144     11.45118        -0.248318      0.150697      0.205939
O      11.44507     13.35770     11.62502         0.831230      0.177441     -0.972630
O      11.45503      5.67259      2.65262         0.632960     -0.400147      0.338045
O      11.48220      5.68595     15.83349        -0.558223     -0.329842     -0.313945
O      11.54782      5.66479      7.24639        -1.500599      0.792300     -1.002054
O      11.46470      5.93208     11.50299         1.324481     -0.436584     -0.509046
O      11.55507      9.56906      2.61627        -1.082001      0.508083      0.074347
O      11.31022      9.66356     15.90814         1.144262     -0.081893     -0.434801
O      11.49978      9.58270      6.88008        -0.478644      0.151330      0.733318
O      11.46666      9.44209     11.45102         0.092359      0.099046      0.137770
O       1.83917      3.82798      2.68729        -0.257231     -1.204614      0.054870
O       2.02187      3.82259     15.95114        -1.171961     -0.105160     -0.425043
O       1.90484      0.01701      2.78846         0.058179      0.038068     -0.021930
O       1.90312     15.35151     15.56468        -0.355925      1.148205      1.030921
O      13.39553      3.75838      2.66217         0.207914      0.371476     -0.143167
O      13.28888      3.76838     15.96356         0.644967     -0.187385     -0.577100
O      13.27941     15.32850      2.74552         1.021135     -0.525950     -0.343733
O      13.32441     15.21285     15.81320         1.189784      1.278661     -0.398023
O       1.73514      3.84499      6.91277         0.491444      0.103765      0.517572
O       1.93594     15.25549      7.03511        -0.119697      0.971441      0.056782
O      13.43446      3.86794      7.14810        -0.421592     -0.674187     -0.609220
O      13.32987      0.01195      7.01664         0.224001     -0.135235      0.152453
O       2.00488      3.86774     11.30906        -0.586298     -1.037166      0.206939
O       1.77922      0.07298     11.35603        -0.203880     -0.384132      0.241182
O      13.27459      3.83262     11.50601         0.548171      0.306454     -0.631844
O      13.37219     15.30634     11.53004         0.486824      0.317270     -0.129447
O       1.89102      7.65661      2.79998         0.703035      0.259003     -0.126691
O       1.97496      7.65145     15.83940        -0.149605      0.153987     -0.155127
O      13.25295      7.58543      2.70236         0.910747      0.315877     -0.321125
O      13.20183      7.65927     15.65326         0.222418     -0.346733      0.220278
O       1.80792      7.60877      6.88366         0.186949      1.317741      0.481633
O      13.27259      7.64218      7.01419         0.302761      1.074593      0.153735
O       1.83397      7.64908     11.46684        -0.244683      0.504382     -0.107352
O      13.67175      7.79648     11.44431        -0.967818     -1.911685     -0.252201
O       1.96515     11.58450      2.64438        -0.626724     -0.748328      0.093658
O       1.69634     11.54872     15.78860         0.906107     -1.508479     -0.313615
O      13.50909     11.50516      2.76465        -0.305110     -0.250748     -0.531149
O      13.39046     11.40327     15.97551        -0.112854      1.064633     -0.761528
O       1.79856     11.48385      7.18138        -0.365182     -0.483986     -0.037418
O      13.34372     11.51785      7.17333         0.410158     -0.069893     -0.423544
O       2.04457     11.56784     11.42456        -0.566281     -0.740808     -0.369152
O      13.32789     11.53929     11.34061        -0.165099     -0.626020      0.186156
O       5.86989      3.85432      2.76041        -0.593698      0.082303     -0.833712
O       5.79011      3.79064     15.77446         0.178577      0.598325      0.177527
O       5.52428     15.33900      2.65667         0.761140      0.406282      0.067290
O       5.64213     15.31897     15.66764         0.653910     -0.192377      0.096869
O       5.67617      3.85021      6.99755         0.595520     -0.022930      0.292222
O       5.70040     15.31642      7.17690         0.276605      0.282319     -0.425416
O       5.77028      3.81030     11.54125         0.279667      0.216086     -1.036883
O       5.89660     15.29326     11.39621        -0.145554      1.150488     -0.210399
O       5.81101      7.78006      2.79525        -0.494805     -1.984316     -0.234745
O       5.61483      7.68784     15.64721         0.256856     -0.506902      0.651625
O       5.55144      7.75829      6.91142         0.309599     -1.500284      0.334135
O       5.65161      7.62739     11.41957         0.314480     -0.367132     -0.202902
O       5.64680     11.56996      2.63084         0.346353     -0.566275      0.263802
O       5.66450     11.49114     15.79162         0.253785      0.328108     -0.276829
O       5.83629     11.56984      7.20261        -0.365077     -0.591311     -0.681697
O       5.69344     11.45750     11.38052        -0.190982      0.041095     -0.015132
O       9.56426      3.75048      2.79573        -0.051189     -0.053190     -0.686765
O       9.44750      3.75715     15.78389         0.123358      0.888803      0.325524
O       9.55948     15.25491      2.81329         0.236031      0.376916     -0.116839
O       9.44697      0.03862     15.93967         0.364766     -1.019396     -0.842088
O       9.52429      3.88412      7.24589        -0.040874      0.329607     -0.763260
O       9.73920      0.02007      7.07401        -0.730063     -0.125496     -0.359297
O       9.55326      3.81218     11.44565         0.788128      0.484863     -0.696686
O       9.65167     15.27695     11.33208        -0.263387      0.710846     -0.002589
O       9.63321      7.63159      2.64234        -0.060613      0.626595      0.323471
O       9.63775      7.65541     15.82490        -0.700570      0.116983     -0.537740
O       9.59871      7.68574      6.97355         0.213416     -0.855142      0.178463
O       9.42929      7.60817     11.51949         1.043306      0.701627      0.200868
O       9.59365     11.49434      2.72967        -0.367884      0.331402     -0.548681
O       9.48648     11.50760     15.80406         0.304331      0.441849     -0.288759
O       9.46644     11.44495      6.97999         1.015041     -0.348957      0.223899
O       9.56324     11.47014     11.38199         0.328865     -0.077722      0.120694
