  # total energy = -7873.27128611 
CRSYTAL
PRIMVEC
    15.2000000000000000    0.0000000000000000    0.0000000000000000
     0.0000000000000000   15.2000000000000000    0.0000000000000000
     0.0000000000000000    0.0000000000000000    17.000000000000000
PRESSURE
8.21454 7.97214 0.091887 0.205693 -0.048899 0.046721
PRIMCOORD
320 1
Pb       3.61193      3.85865      4.34358         0.339909     -0.123620     -0.581326
Pb       4.00097      3.91820     16.98216        -0.359401     -0.075117      0.722678
Pb       3.62818      0.23650      4.34392        -0.417019     -0.663994     -0.314851
Pb       3.87818     15.15861     16.91995        -0.467752     -0.347543      0.332524
Pb       0.09886      3.89371      4.21194        -0.727253     -0.240330     -0.131225
Pb       0.23780      3.96247     16.92867        -1.509565     -1.234225      0.161581
Pb      15.13465      0.26008      4.55836         0.519150     -0.526793     -1.223480
Pb       0.07841     15.06628     16.96362        -0.358691      0.081180     -0.289512
Pb       3.97259      3.89517      8.34579        -0.757870     -0.498838      0.341062
Pb       3.85447     14.99343      8.75223        -0.021610      0.041749     -0.502047
Pb       0.17712      3.58301      8.70177        -0.432349      1.208297     -0.129665
Pb      14.85761     15.14444      8.47945         0.796384     -0.389491      0.625423
Pb       3.85752      3.58495     12.52029        -0.505755      1.022587      0.873331
Pb       3.81553      0.07527     12.88524         0.072562     -0.348219     -0.373599
Pb      15.13403      3.90406     12.68271        -0.016345     -1.141485      0.122619
Pb       0.09459     15.19294     12.91459        -0.588229      0.239564     -0.495528
Pb       3.70357      7.65444      4.36853        -0.151438     -0.056264     -0.678949
Pb       3.70860      7.64352     16.95131         1.309207     -0.038943      0.734977
Pb      15.05071      7.83233      4.39405         0.740065     -0.478214     -0.857263
Pb      15.06081      7.43057     16.85602         0.403538      0.991129     -0.055975
Pb       3.87340      7.58189      8.31028        -0.463591      0.201401      0.335205
Pb      15.02977      7.51103      8.48487         0.116827     -0.083587      0.738252
Pb       3.63894      7.43950     12.66987         0.864075      0.431093     -0.292004
Pb       0.02897      7.42650     12.82149        -0.795453      0.028735     -0.442915
Pb       3.50926     11.47249      4.38043         0.128659     -0.423323     -0.358218
Pb       4.09018     11.44468      0.26863        -0.844767     -0.335319     -0.740841
Pb      15.16391     11.48393      4.21467        -0.273549     -0.383973     -0.021788
Pb       0.13992     11.33503     16.84022        -0.018377      0.369204      0.037058
Pb       3.62828     11.38212      8.57290         0.938579      0.259589      0.323783
Pb      15.11849     11.36262      8.63474        -0.455823      0.057534     -0.185694
Pb       3.70493     11.26151     12.68055         0.321742      0.103361     -0.016083
Pb      15.10337     10.96740     13.04349         0.865815      1.355293     -1.119697
Pb       7.55500      3.84345      4.29352        -0.016299     -0.146308     -0.075648
Pb       7.60871      3.79548      0.14996        -0.206455     -0.037784     -0.318525
Pb       7.55071     15.07868      4.24361         0.573101      0.335820     -0.012707
Pb       7.69856     15.07440     16.96360         0.050840      0.070024     -0.123020
Pb       7.71023      3.56059      8.42056        -0.302961      0.704008     -0.134309
Pb       7.66584      0.04153      8.55761        -0.230405     -0.106552     -0.620492
Pb       7.73398      3.73582     12.79119        -0.922881      0.403565     -0.241538
Pb       7.58565     15.08914     12.87987        -0.148703     -0.036519     -0.447085
Pb       7.75061      7.45443      4.02866        -0.510773      0.566451      1.276852
Pb       7.70844      7.72590      0.17097        -1.257091     -0.273479     -1.032991
Pb       7.53166      7.63510      8.24518         0.191345      0.288412      0.909726
Pb       7.45223      7.64472     12.63093         0.374041      0.097233      0.224678
Pb       7.44805     11.36533      4.31264         0.999784     -0.240734      0.245346
Pb       7.51438     11.49259      0.01067         0.339412     -0.658979     -0.547674
Pb       7.61959     11.51833      8.67927        -0.500948     -0.232042     -0.939326
Pb       7.63248     11.34859     12.72782        -0.609591      0.116264     -0.304683
Pb      11.35189      4.06053      4.05698         0.347006     -1.461946      0.953229
Pb      11.28933      3.59834     16.95193         0.741176     -0.003640      0.372496
Pb      11.51905     15.14353      4.11852        -0.652519     -0.071767      0.055505
Pb      11.43177     15.19647     16.98077         0.016895     -0.090772      0.008767
Pb      11.47675      3.79432      8.46384        -0.330216     -0.119575      0.475896
Pb      11.33924      0.03783      8.45936        -0.337402      0.074130      0.304212
Pb      11.25159      3.59186     12.79180         1.325594      0.638840     -0.386161
Pb      11.38593      0.00590     12.63287         0.311198      0.199848      0.708988
Pb      11.50888      7.47437      4.06984        -0.644197      1.340407      0.848129
Pb      11.42347      7.58134     16.93186        -0.092664      0.161746     -0.355137
Pb      11.28745      7.50573      8.73025         0.468508     -0.148881     -0.470692
Pb      11.38961      7.65303     12.98405        -0.136196     -0.637169     -0.716011
Pb      11.37131     11.29128      4.17744        -0.472968      0.021981     -0.151930
Pb      11.49986     11.44950     16.67673        -0.394241     -0.150242      1.044929
Pb      11.32160     11.40264      8.53396        -0.130593      0.383612     -0.482595
Pb      11.23642     11.13836     12.44087         0.267558      1.060488      1.559179
Ti       1.87602      1.88568      2.01306        -0.024481     -0.126178      1.525727
Ti       1.92745      1.96768     14.95742        -0.831290     -1.266274     -1.441521
Ti       1.85189     13.31408      2.25810        -0.055526      0.416491     -1.980671
Ti       1.86434     13.29875     14.89445         0.719028     -1.096135     -0.547040
Ti      13.34808      1.88082      2.14279        -0.380445      0.490692     -1.310370
Ti      13.36593      1.86176     14.98417        -0.526593     -0.296805     -0.852591
Ti      13.33303     13.25223      2.16160        -0.627194      1.253210     -0.005687
Ti      13.33969     13.28158     14.83688         0.110753     -0.184387      0.251736
Ti       1.85367      1.86708      6.66042         1.059691      0.665925     -0.987742
Ti       1.75878     13.30748      6.69035         0.932378      0.039876     -1.137142
Ti      13.21347      1.98867      6.41599        -0.670105      0.255222      0.698722
Ti      13.15505     13.26906      6.57584        -0.203391     -0.619433     -0.689945
Ti       1.89514      1.77520     10.69387        -0.267091      1.486725      0.504739
Ti       1.78910     13.24360     10.87903        -0.269716     -0.563089     -0.477402
Ti      13.31478      1.84304     10.63185        -0.525845      0.893878      0.305875
Ti      13.24135     13.17121     10.84676         0.658204      1.299619     -0.943558
Ti       1.78814      5.72164      2.26627         1.795503      1.558243     -0.690392
Ti       1.94954      5.64066     14.96456        -0.531216      1.077066     -0.781109
Ti      13.36072      5.74924      2.12040        -0.290788     -0.426306      0.404583
Ti      13.24537      5.60116     14.92799        -0.371472      0.686047     -1.116183
Ti       1.69805      5.73215      6.50663         0.848052     -0.327556      0.542015
Ti      13.19027      5.74463      6.50910         0.275563     -0.289227     -0.813031
Ti       1.88618      5.66957     10.67121        -0.677030     -0.823698     -0.841475
Ti      13.14749      5.67227     10.83582         0.938472     -0.566366     -0.835831
Ti       1.78718      9.47483      2.07738         0.609972     -0.784324      1.708908
Ti       1.99350      9.39081     14.98200        -0.704914      2.037250     -0.037702
Ti      13.24611      9.52934      2.01288         0.167799     -0.206962     -0.875987
Ti      13.32459      9.49705     14.91469        -0.547574     -1.182112      0.002308
Ti       1.76590      9.50182      6.60096        -0.032889     -0.021987     -1.347717
Ti      13.17382      9.49853      6.49667         0.780542      0.149041      0.946538
Ti       1.81769      9.41241     10.64050        -0.181107      0.247507      0.071640
Ti      13.22023      9.41515     10.73647         0.762149     -1.016821     -0.374079
Ti       5.63214      1.84619      2.27147         0.141047      1.133045     -0.931939
Ti       5.70589      1.87265     15.08129        -0.102498      0.354401     -1.390131
Ti       5.65858     13.28584      2.39401        -0.477837      0.568846     -1.034533
Ti       5.64709     13.27716     14.96271         0.047242     -0.720488     -1.174425
Ti       5.64977      1.82389      6.45020         0.282794      0.560219      0.380978
Ti       5.58955     13.29894      6.47845         0.821625     -0.277997     -0.428911
Ti       5.70930      1.88391     10.67255         0.584776     -0.687425     -0.745802
Ti       5.58658     13.27656     10.83793         0.569720     -1.016533     -0.281713
Ti       5.68473      5.64407      2.35268        -1.199101      0.886166     -0.927181
Ti       5.70727      5.70440     14.87859         0.652904      0.901482      1.263658
Ti       5.69573      5.71616      6.47041         1.409301      0.069990     -1.623374
Ti       5.79212      5.65895     10.59839        -0.896892      0.168467      0.390478
Ti       5.57204      9.47976      2.42729         0.364073     -0.720824     -1.370525
Ti       5.64252      9.46572     14.86622         0.350943     -0.243765     -0.218536
Ti       5.61039      9.58734      6.40541         1.318086      0.070605     -0.131095
Ti       5.61539      9.44525     10.54840         0.282285      0.941417      1.446318
Ti       9.47832      1.92158      2.32800         0.459037     -0.943197     -0.954834
Ti       9.46958      1.89293     14.97328         0.261878     -1.568612     -0.171253
Ti       9.50692     13.23381      2.20379         1.316717      0.221714     -0.544417
Ti       9.57110     13.23941     14.89179        -0.576353      0.433079     -0.105752
Ti       9.51698      1.89854      6.33530        -0.440404      0.017256     -0.269879
Ti       9.42162     13.31119      6.49141         0.015816     -0.806848     -0.513866
Ti       9.48496      1.91563     10.76153        -0.160531     -0.229221     -0.797322
Ti       9.47908     13.39105     10.68632        -0.382432     -0.818624      0.188910
Ti       9.53878      5.67913      2.06429        -0.779091      0.297427     -0.159671
Ti       9.48156      5.60607     14.99859        -0.202590      1.274389     -0.370731
Ti       9.47648      5.65724      6.53506        -0.092614     -0.035126     -1.417757
Ti       9.41424      5.66338     10.61361         0.803427      1.175081     -0.072497
Ti       9.40584      9.47843      2.13361         1.093545      1.273644     -0.166647
Ti       9.42152      9.49508     14.94826        -0.398452     -0.183252     -0.240200
Ti       9.50442      9.39106      6.49208        -1.240638      1.721928     -2.036551
Ti       9.35713      9.49106     10.59808        -0.408799     -1.099401      1.087060
O       1.80599      1.98603      0.24904         0.087502     -0.014445     -0.214670
O       2.04105      1.86806     13.02998        -0.600714     -0.054995      1.397032
O       1.80133     13.27642      0.37879         0.043104      0.122437      1.590518
O       1.93121     13.26985     13.04059        -0.553389      0.545332      0.718414
O      13.27014      1.76344      0.27610         0.177730      0.297842      0.821637
O      13.18742      1.86654     13.18174         0.197887     -0.092111      0.357488
O      13.36318     13.46873      0.40222        -0.189705     -0.592852     -0.174735
O      13.35074     13.14004     13.10253        -0.105393      0.394405     -0.806940
O       1.99750      1.97077      4.70376        -0.518095     -0.036565      1.288854
O       1.95401     13.41668      4.82417        -0.512492     -0.948408      0.136944
O      13.14806      1.94513      4.63286         0.661142     -0.206988      0.090564
O      13.26476     13.26256      4.77648        -0.114176      0.246605     -0.118146
O       1.84423      1.82714      8.89123        -0.111987     -0.020487     -0.966578
O       1.82294     13.30467      8.95467         0.196100     -0.099246      0.498634
O      13.24495      1.89830      8.74689         0.422835     -0.003967      1.235983
O      13.25601     13.18102      8.91953         0.161868      0.626371      1.241342
O       1.74167      5.63684      0.36172         0.597643      0.471114      1.168109
O       1.82874      5.65612     13.17126         0.373305      0.342128     -0.226489
O      13.19271      5.91697      0.36081         0.671786     -0.677542     -0.645064
O      13.28427      5.79641     13.07149        -0.265563     -0.535904      1.011950
O       1.77495      5.76344      4.70333         0.099059     -0.795472     -0.022709
O      13.28312      5.81586      4.64950        -0.108449     -0.350742      0.777504
O       1.74871      5.71809      8.87963         0.373409      0.134347      0.319574
O      13.12400      5.76235      8.95576         0.166260     -0.189889      0.130280
O       1.89427      9.45218      0.30950        -0.155481      0.161501      0.031840
O       1.96806      9.47208     13.18895        -0.169882     -0.523638     -0.956921
O      13.28033      9.48066      0.14788         0.097593     -0.027688      1.872052
O      13.25212      9.44177     13.00089        -0.282344     -0.101954      0.949608
O       1.85807      9.60338      4.73613        -0.188355      0.129499      0.818889
O      13.41972      9.47931      4.74381        -1.018558      0.420196     -0.707417
O       1.80002      9.44225      8.82417         0.108907     -0.201139      0.878409
O      13.31302      9.33007      8.92171        -0.537329      0.501158      0.245163
O       5.60697      1.77167      0.40781         0.298547      0.696165      0.534682
O       5.63082      1.89365     13.20800         0.145371     -0.152875      0.964725
O       5.73338     13.29141      0.39065         0.029395     -0.037165      0.985893
O       5.61406     13.34967     13.11402         0.396506     -0.092045      0.948144
O       5.62307      1.90900      4.66349        -0.027639     -0.270296     -0.267150
O       5.74749     13.28999      4.58297        -0.301037      0.233092      0.669940
O       5.77061      1.96944      8.84232        -0.354839     -0.473281      0.491970
O       5.56953     13.23069      9.02235        -0.036806      0.513356     -0.452994
O       5.72979      5.69339      0.53142        -0.602853     -0.509925     -0.245061
O       5.68558      5.65722     13.16331        -0.221706      0.048747     -1.118264
O       5.84168      5.91475      4.61008        -0.334385     -1.103160      0.840983
O       5.78482      5.66335      8.77776        -0.093759      0.062157      0.721716
O       5.53943      9.54061      0.52754         0.371198      0.378776      0.193065
O       5.63280      9.40197     13.07227        -0.050964      0.198654      0.552435
O       5.62559      9.52490      4.56033         0.215159      0.433067      0.497323
O       5.72273      9.50280      8.79946        -0.401562     -0.144716     -0.441810
O       9.55484      2.00703      0.40679        -0.411072     -0.470814      0.553867
O       9.38037      1.95109     13.08701         0.319545     -0.066757      1.023680
O       9.51897     13.30658      0.36782        -0.264330     -0.193642      0.384534
O       9.42497     13.23022     13.13575         0.047437      0.128786     -0.853798
O       9.46230      1.98007      4.52856         0.351879     -0.043423      0.184001
O       9.41959     13.28129      4.66920         0.199764      0.234099      0.513217
O       9.43859      1.77580      8.96416        -0.217905      0.456277      0.077019
O       9.51246     13.33789      8.85435        -0.515848      0.050263      1.314317
O       9.44853      5.81707      0.27552         0.338477     -0.719547      0.168630
O       9.60333      5.46101     13.22021        -0.479776      0.499818     -0.171978
O       9.49273      5.69271      4.63779         0.139312     -0.234806      0.071132
O       9.45799      5.61236      8.81403         0.090645      0.249473      0.351831
O       9.36109      9.46747      0.27588         0.564620      0.380086      1.009589
O       9.46486      9.50781     13.08702        -0.231827     -0.159581      0.725037
O       9.52399      9.50843      4.60527        -0.151764     -0.214355      1.307980
O       9.37649      9.65660      8.86321         0.185958     -0.731787     -1.133171
O       3.68027      2.04176      2.41803         1.375683     -0.216195      0.567640
O       3.70604      1.76441     15.30171         1.570336      0.680171      0.157126
O       3.73138     13.33251      2.43219         1.252075     -0.436765      0.456081
O       3.76013     13.29106     15.28070         0.551853      0.217491      0.163032
O       0.08762      1.92198      2.55651        -1.130222     -0.063837      0.342662
O      15.19427      1.94415     15.10208         0.674108     -0.125758      0.321731
O      15.16296     13.36317      2.57414         0.629781     -0.146673      0.393850
O       0.00331     13.27772     15.32936         0.512659     -0.084707     -0.132561
O       3.75818      1.92831      6.79671         0.319585     -0.336431      0.167158
O       3.74888     13.31831      6.91808        -0.088954      0.387663      0.102421
O      15.12946      1.90459      6.60633        -0.496205      0.139685      0.370908
O      15.12660     13.17881      6.90389        -0.081661      0.188395     -0.103167
O       3.80373      1.84698     10.99318        -0.174911     -0.312386     -0.199833
O       3.68734     13.28021     11.10784        -0.184639      0.284504     -0.343147
O      15.15325      1.99101     10.94672         0.252121     -0.196149      0.077014
O      15.08231     13.17857     11.16057         1.014295      0.487041     -0.452893
O       3.78134      5.80260      2.65316        -0.256020     -0.711754     -0.043902
O       3.72918      5.75032     15.28490         1.643581     -0.341736      0.283004
O      15.17991      5.87219      2.63287         0.151946     -0.347614     -0.301983
O       0.00789      5.70271     15.23069        -0.692394      0.343615      0.318987
O       3.82019      5.80094      6.73952        -0.276785     -0.548329      0.009249
O      15.12389      5.59947      6.89657        -0.593967      0.152263     -0.359307
O       3.77222      5.76469     10.90540         0.567271     -0.015600      0.156813
O      15.13680      5.51710     11.15119         0.274233      0.576759     -0.702927
O       3.75949      9.54481      2.60742        -0.983864      0.067147     -0.033260
O       3.78221      9.43949     15.31757         0.849051      0.448089      0.196327
O      15.11660      9.49619      2.55131         0.747045      0.150743     -0.294153
O       0.00602      9.46741     15.11971         0.067358     -0.423253      0.245551
O       3.78063      9.39136      6.73010        -0.486199      0.060536      0.428239
O      15.07630      9.65618      6.74797         1.070351     -0.368839      0.592479
O       3.77258      9.39978     10.93777        -1.574019     -0.517845     -0.032559
O      15.06743      9.57238     11.03172         1.330028     -0.060973     -0.056744
O       7.61131      2.01917      2.55896        -0.652275     -0.387357     -0.256620
O       7.59336      1.86752     15.35468        -0.269948      0.010713     -0.076094
O       7.70975     13.26623      2.57298        -2.200081      0.475469     -0.006113
O       7.63375     13.37971     15.17872        -1.120599     -0.282019      0.579674
O       7.62871      1.87152      6.72773        -0.479303      0.250330      0.148419
O       7.52997     13.18325      6.83916         0.054350      0.583720      0.057098
O       7.55069      1.86164     10.98379         0.167051      0.117917      0.463976
O       7.58174     13.14349     11.02096         0.075057      0.778397      0.122500
O       7.61284      5.64463      2.35037         1.013327      0.182031      0.821718
O       7.62748      5.69169     15.19989        -0.952389     -0.164157      0.238788
O       7.65604      5.55870      6.68749        -1.999041      0.413881      0.466920
O       7.57950      5.59403     11.15705        -0.689169      0.071749     -0.290466
O       7.59785      9.59486      2.41108         0.298146     -0.236890      0.354270
O       7.51863      9.52246     15.26306         0.937699     -0.065075      0.021461
O       7.48808      9.60666      6.77873         1.229414     -0.121448     -0.164636
O       7.48172      9.59446     11.03079         0.635598     -0.163568      0.010527
O      11.49305      2.00443      2.41005        -0.728798      0.251339      0.418152
O      11.35835      1.83393     15.27864        -0.148652      0.320484      0.077150
O      11.41219     13.33542      2.53779         0.195242     -0.178847      0.294974
O      11.48823     13.36212     15.16772        -0.736459     -0.652914      0.511347
O      11.30604      1.87139      6.85497         1.063782     -0.080868     -0.263115
O      11.26882     13.40610      7.01447         0.902265     -0.669453     -0.849518
O      11.36167      1.87822     10.97513        -0.492394     -0.037777      0.338950
O      11.35673     13.38694     11.16982        -0.595516     -0.488892     -0.569402
O      11.44597      5.75911      2.55628        -0.243874     -0.096321     -0.913861
O      11.39602      5.70509     15.23476        -0.381614     -0.131936      0.436379
O      11.31239      5.92864      6.77136         1.351761     -0.588494      0.294204
O      11.33023      5.80633     10.99718        -1.495537      0.034244      0.238787
O      11.43305      9.46580      2.46335        -0.315474      0.248097     -0.040841
O      11.49474      9.68400     15.16738        -2.026562     -0.637369     -0.202703
O      11.35114      9.26528      6.74525        -0.242905      0.479676      0.490708
O      11.25491      9.25093     10.99171         0.596930      0.528211     -0.067773
O       1.87352      3.89490      2.62941        -0.310285     -0.691653     -0.255428
O       1.81827      3.81571     15.21055         0.637251     -0.389196      0.332146
O       1.94796      0.02114      2.61036        -0.237294      0.334678     -0.484958
O       1.89449     15.16764     15.24357        -0.612836      0.639295     -0.163808
O      13.45347      3.89003      2.29796        -0.198999     -0.439569      0.555180
O      13.22618      3.81239     15.14626         0.153647     -0.769487      0.546049
O      13.19018      0.04648      2.54629         0.929548     -0.280175      0.177060
O      13.50972     15.10273     15.15746        -0.668073      1.353304      0.114453
O       1.86682      3.84304      6.98183         0.286935     -0.583885     -0.573812
O       1.73843      0.02320      6.73283         0.081924     -0.386762      0.537233
O      13.09459      3.84130      6.81405         0.311469     -0.419729     -0.541090
O      13.18125     15.12853      6.89376         0.682960      1.600936     -0.705898
O       1.91532      3.76903     10.91465         0.053176     -0.054815      0.205938
O       1.77140      0.00787     10.99391         0.004706     -1.482264      0.420903
O      13.13734      3.73111     11.12925         0.086062      0.107243     -0.252792
O      13.19580      0.06132     11.13331         0.815048     -0.956674     -0.506151
O       1.96425      7.62365      2.68228        -0.501548      0.500649     -0.753754
O       1.98871      7.62840     15.38845        -1.115350     -2.067659     -0.483524
O      13.30682      7.67050      2.48353        -0.036602     -0.028893      0.083799
O      13.19588      7.57383     15.25516         0.294142      0.382160     -0.256547
O       1.83505      7.61121      6.74408        -0.337413     -0.338165      0.391851
O      13.36501      7.56064      6.87046         0.102069      0.825058     -0.469782
O       1.57570      7.52784     11.10770         1.268073      0.894756     -0.330452
O      13.36609      7.50661     11.05923        -0.008120      1.265358      0.099617
O       1.93116     11.32055      2.49157        -0.558172      1.393401      0.429093
O       1.78708     11.39931     15.12540         0.243022     -0.294207      0.448144
O      13.33397     11.41997      2.49457        -0.201906     -0.732703      0.085413
O      13.41883     11.34644     15.28636         0.125712      1.069874     -0.211099
O       1.99169     11.32723      7.00504        -0.678695      1.364412     -0.779840
O      13.14074     11.42622      6.89397        -0.485103     -1.444204      0.020441
O       1.90435     11.28441     11.06951        -0.148318      0.189866     -0.462850
O      13.14193     11.37149     10.98864        -0.498982     -1.191803     -0.269236
O       5.71958      3.76289      2.60498        -0.418200      0.287983      0.182946
O       5.56559      3.79579     15.37493         0.701278     -0.142587     -0.230557
O       5.60573      0.05346      2.62089         0.522568     -0.894772      0.182328
O       5.68827      0.00537     15.30852        -0.120953     -0.434055      0.063088
O       5.72838      3.77295      6.69722        -0.422345      0.474181      0.072131
O       5.74696     15.17197      6.87420        -0.340725     -0.040821     -0.122297
O       5.67112      3.72956     11.04598        -0.061554      1.245141     -0.412098
O       5.59078     15.14198     11.06794         0.443876      1.084547     -0.125343
O       5.73187      7.65722      2.54774         0.314006     -0.839355      0.181943
O       5.70783      7.61858     15.22098        -0.320077     -1.181934      0.290913
O       5.79864      7.64879      6.76854        -0.646695     -0.857694     -0.105374
O       5.70132      7.58688     11.07294         0.249586     -1.254157     -0.681400
O       5.70619     11.47980      2.57243        -0.156771     -0.128399     -0.055976
O       5.64197     11.35876     15.19220         0.188900      1.149919      0.619694
O       5.59729     11.44306      6.80060        -0.442522     -0.109842     -0.273120
O       5.56964     11.36164     11.00503        -0.116894     -0.380515      0.272455
O       9.59109      3.85862      2.44513        -0.133172      0.184112      0.036936
O       9.41091      3.74152     15.38116         0.440634      0.050716     -0.159475
O       9.52646      0.04820      2.47323        -0.030199     -0.309599      0.279143
O       9.53497     15.12108     15.21637        -0.394976      1.601360      0.308968
O       9.53102      3.80011      6.82930         0.400388     -1.232532     -0.167649
O       9.46241      0.05519      6.86686        -0.439329     -0.584684     -0.441152
O       9.44963      3.83454     10.97564         0.078815     -1.183064      0.461291
O       9.39646      0.02596     11.12344        -0.017523     -0.702054     -0.002214
O       9.51463      7.55503      2.41449        -0.103050      0.661016     -0.057674
O       9.59894      7.67621     15.28515        -0.135576     -0.825827     -0.392370
O       9.33514      7.54163      6.78700        -0.113906      1.145566      0.161894
O       9.24236      7.57520     10.83652         0.090186     -0.020442      0.196486
O       9.61257     11.36814      2.56080        -0.260777     -0.193738     -0.353686
O       9.41665     11.39931     15.22981         0.462124     -0.106975      0.479536
O       9.56734     11.39503      6.82774         0.204968     -0.210966     -0.070076
O       9.46998     11.40353     10.94072         0.374827     -0.006306      0.045700
