  # total energy = -7876.31877915 
CRSYTAL
PRIMVEC
    15.3600000000000000    0.0000000000000000    0.0000000000000000
     0.0000000000000000   15.3600000000000000    0.0000000000000000
     0.0000000000000000    0.0000000000000000    17.440000000000000
PRESSURE
1.40973 1.39087 2.26484 0.08654 0.272376 -0.029798
PRIMCOORD
320 1
Pb       3.80452      3.81436      4.43655         0.015087     -0.103621     -0.592858
Pb       3.92609      3.73738     17.38246        -0.188978     -0.010293     -0.256853
Pb       3.77527     15.29672      4.40447         0.001822      0.279128      0.250244
Pb       3.82766     15.35433     17.37937        -0.262803      0.040158     -0.488299
Pb       0.02810      3.78664      4.44130        -0.138468     -0.121326     -0.906511
Pb       0.16789      3.85930      0.07945        -0.632683     -0.069490     -0.684566
Pb       0.07428     15.27920      4.33129        -0.451989      0.354815     -0.093461
Pb      15.10876     15.25877      0.02831         0.520331      0.504324     -0.478237
Pb       3.71820      3.93816      8.65044         0.539858     -0.787359     -0.345449
Pb       3.83886      0.00164      8.82716        -0.145771      0.241386     -0.757416
Pb      15.07225      3.98526      8.66203         0.080612     -1.060943      0.288168
Pb      15.22376      0.15875      8.76004         0.245542      0.207502     -0.325117
Pb       3.84387      3.73994     12.93378         0.164935      0.468878     -0.394663
Pb       3.70586     15.25507     12.91068         0.214624     -0.036998     -0.103432
Pb       0.02436      3.66046     13.14497        -0.621025      0.296322     -0.276209
Pb       0.03382     15.34082     12.96831        -0.811475      0.110829     -0.356207
Pb       3.89872      7.65664      4.29400         0.108670     -0.146829     -0.272364
Pb       3.66870      7.58605      0.00627         0.123951      0.140488     -0.182985
Pb       0.21084      7.73608      4.33126        -0.756023      0.303743     -0.743116
Pb      15.23832      7.73703     17.37041         0.103598     -0.530109     -0.229381
Pb       3.94303      7.66875      8.74961        -0.067554     -0.061978     -0.680645
Pb      15.34501      7.64047      8.71597        -0.632982      0.307852     -0.304765
Pb       3.79217      7.59563     13.04939        -0.019481     -0.427644     -0.790334
Pb       0.06881      7.65094     13.16340        -0.477664     -0.030234     -0.656367
Pb       3.63769     11.50582      4.31772         0.975053      0.265081     -0.064375
Pb       3.98230     11.34966     17.33407        -0.320121      0.839249     -0.282457
Pb       0.10316     11.66208      4.22205        -0.430939     -0.369403     -0.374721
Pb      15.21686     11.49029     17.30781         0.232669      0.369627     -0.206692
Pb       3.78977     11.58265      8.73405         0.055235      0.075928     -0.095390
Pb      15.30148     11.36174      8.73415         0.070128      0.092615     -0.525477
Pb       3.92948     11.45489     12.97707        -0.295781      0.614065     -0.467999
Pb       0.16329     11.49311     13.16479        -0.213476      0.006699     -0.575168
Pb       7.72131      3.69067      4.42529         0.131538     -0.077117     -0.443546
Pb       7.62408      3.86482     17.37618         0.346773     -0.192766     -0.313509
Pb       7.72009     15.34729      4.40601         0.401136      0.227716     -0.544013
Pb       7.42767     15.31500     17.37062         0.438826      0.167357     -0.436331
Pb       7.65268      3.83037      8.71033         0.094396     -0.106336     -0.763008
Pb       7.66753     15.27231      8.60715         0.004435      0.212778     -0.096899
Pb       7.83764      4.00605     13.25806        -0.188590     -0.302389     -0.779749
Pb       7.62522      0.18777     13.02843        -0.374010     -0.300899     -0.500454
Pb       7.60691      7.48212      4.26760         0.102619      0.637479      0.662962
Pb       7.57276      7.67288      0.00208         0.258940     -0.055153      0.013520
Pb       7.60662      7.85076      8.67075         0.210420     -0.590997     -0.532246
Pb       7.58637      7.62391     12.96802         0.808513      0.015326     -0.559030
Pb       7.72487     11.37969      4.40471        -0.795499      0.390017     -0.659083
Pb       7.53089     11.62137     17.36860         0.463292      0.228488     -0.380802
Pb       7.67027     11.50617      8.69727         0.029068      0.259234     -0.361764
Pb       7.83637     11.59614     13.04282        -0.360077      0.094453     -0.381567
Pb      11.53350      3.74993      4.36046        -0.420452     -0.433364     -0.878404
Pb      11.60850      3.80686      0.09303        -0.413672      0.206185     -0.690345
Pb      11.57924     15.28429      4.31955        -0.446212      0.395188     -0.743692
Pb      11.35946     15.25057     17.34951        -0.019074      0.181498     -0.109368
Pb      11.50903      4.06615      8.71631        -0.300164     -0.918628     -0.244603
Pb      11.45104     15.29674      8.65893         0.012201      0.398140      0.014727
Pb      11.57350      3.68703     13.31457         0.038569      0.070625     -0.294663
Pb      11.46299     15.33292     13.06410         0.588589      0.131892     -0.705593
Pb      11.53588      7.68679      4.21132        -0.177332     -0.129634     -0.254165
Pb      11.43860      7.58783      0.06620         0.461422      0.219478     -0.937452
Pb      11.54860      7.68924      8.69263         0.109934      0.328535     -0.441294
Pb      11.39433      7.67285     13.07843        -0.161246      0.001263     -0.292237
Pb      11.57126     11.37997      4.37882        -0.174890      0.245420     -0.600134
Pb      11.32595     11.47782     17.37450         0.493236     -0.088784     -0.401791
Pb      11.53161     11.53238      8.83744         0.128409     -0.477268     -0.905444
Pb      11.47319     11.43344     13.00129         0.559839      0.209685     -0.039771
Ti       1.83363      1.85226      2.31154         0.136109      1.132531     -0.562203
Ti       1.82989      1.85961     15.42448         0.097455     -0.715124      4.265951
Ti       2.02278     13.53756      2.17446        -1.125783     -1.418106     -1.271232
Ti       1.97661     13.43606     15.41838        -1.029552      0.607825     -0.733778
Ti      13.33823      1.89466      2.21076        -0.088511     -0.320135      0.967626
Ti      13.36504      1.89335     15.47433         0.662093     -0.022278     -1.385377
Ti      13.39542     13.38738      2.27379        -0.156839      0.339663      0.160196
Ti      13.44564     13.39182     15.29106        -0.584188      0.245974      0.994995
Ti       1.80405      1.90963      6.69771         0.754759     -0.585835      1.426603
Ti       1.86015     13.44869      6.81155         0.568426      0.538519      0.489685
Ti      13.29119      1.81650      6.65608         0.800914      0.950898      0.208862
Ti      13.52190     13.36516      6.64899        -0.668453      0.439579      0.871095
Ti       1.86226      1.94752     10.99094        -0.765977     -0.463515     -0.480279
Ti       1.83240     13.36061     10.93318         0.944219      0.483716      0.381072
Ti      13.30579      2.03998     11.03046         0.823545     -1.005537     -0.491433
Ti      13.43299     13.44317     10.89917        -0.181462      0.487795      3.530942
Ti       1.96861      5.76286      2.29102        -0.609552     -0.109116      1.311745
Ti       1.99026      5.66214     15.38751        -1.113042      0.383600      1.564006
Ti      13.47164      5.78526      2.31863         0.037475     -0.706505      0.114186
Ti      13.43348      5.70909     15.44647         0.203611      0.233599      1.460800
Ti       1.84544      5.78128      6.64390         2.144725     -0.430815     -0.082194
Ti      13.41759      5.74708      6.50717        -0.185920      0.400257      0.317977
Ti       1.78201      5.68275     11.00700         0.728452     -0.008953      3.467017
Ti      13.40045      5.80238     11.13487        -0.276751     -0.156229     -0.861210
Ti       1.95020      9.65677      2.19010        -0.708736     -0.689204      0.171400
Ti       2.06477      9.59682     15.37698        -1.088734      0.101225      0.550247
Ti      13.37713      9.61056      2.23014         0.813723     -0.280202      0.244360
Ti      13.48448      9.63058     15.29740        -1.699037     -0.581181      1.823167
Ti       1.95092      9.53442      6.75603        -0.650882      0.771954      0.135370
Ti      13.45255      9.56588      6.62382        -0.501863     -0.177065      2.305642
Ti       1.96816      9.47294     11.02473        -0.723971      1.087621      2.239585
Ti      13.44385      9.58802     11.05183         0.411188     -0.302754      0.750555
Ti       5.62725      1.91623      2.32663         0.370462      0.376251      0.001153
Ti       5.62183      2.03915     15.27179         0.837820     -1.530707     -0.645792
Ti       5.73109     13.55076      2.33788         0.554698     -1.628555     -0.187484
Ti       5.70673     13.52104     15.22395         0.286559      0.121167      1.305859
Ti       5.71061      1.83820      6.70668        -0.348718      0.322686      0.948004
Ti       5.77467     13.35694      6.67753        -0.121605      0.775707      0.427345
Ti       5.74221      1.88577     11.00395        -0.287553      0.494394     -1.015586
Ti       5.82950     13.44084     11.00518        -0.641975      0.122333      1.997449
Ti       5.80568      5.75384      2.33144        -0.067159     -0.768184      0.899621
Ti       5.80296      5.81575     15.29153        -0.648171     -1.300557      1.970337
Ti       5.74506      5.69445      6.66382         0.273780      0.736887     -0.115291
Ti       5.73128      5.72304     10.94493        -0.138346     -0.649678      2.576153
Ti       5.74363      9.68595      2.27020         0.367027      0.324466      2.760216
Ti       5.85168      9.49729     15.30952        -0.416460      1.155418      1.524825
Ti       5.66838      9.65975      6.68358         0.510074     -0.864699      0.569569
Ti       5.80372      9.60048     11.04518        -0.582783     -0.115701      0.073250
Ti       9.43506      1.94117      2.07615         1.384004     -1.028072      1.118964
Ti       9.43825      1.85667     15.38130         0.719195      1.148352      1.166174
Ti       9.54177     13.32809      2.27733        -0.008608      1.557474     -0.651510
Ti       9.55348     13.46317     15.30757        -0.242044     -0.462244      1.668612
Ti       9.58047      1.91236      6.78195        -0.314715      0.477674     -0.202326
Ti       9.71150     13.33368      6.62614        -0.822905      1.333193      0.595805
Ti       9.56303      2.00792     10.92443         0.553785     -0.571811     -0.123314
Ti       9.67968     13.44956     10.91152        -0.680481      0.726201      0.784910
Ti       9.59168      5.71622      2.38036         1.040473     -0.596411      0.155670
Ti       9.57727      5.77571     15.42029         1.042475     -0.592150     -0.439531
Ti       9.61794      5.85178      6.57021        -1.526720     -1.092088      0.036621
Ti       9.59442      5.73235     10.99307         0.179550      0.529892      2.027379
Ti       9.49573      9.58349      2.32173         0.408628     -0.364128      1.225963
Ti       9.54661      9.59308     15.41397         1.979319     -0.393328     -1.006552
Ti       9.54162      9.58944      6.58913         1.010208     -0.545646     -0.182900
Ti       9.54930      9.63914     11.00237         0.694234     -1.172523      1.455358
O       1.91824      1.86295      0.52079         0.139308      0.343947      0.603283
O       1.67623      1.89819     13.79620         0.106054     -0.024260     -5.290904
O       1.96356     13.43923      0.39868         0.186454      0.099272      0.464847
O       2.00006     13.43885     13.61562        -0.249923      0.048601     -0.871034
O      13.41585      1.82142      0.47457        -0.178258      0.176260     -1.514649
O      13.39986      1.91455     13.57867        -0.215533      0.214363      0.578663
O      13.37068     13.29331      0.54164         0.130271      0.123358     -1.482124
O      13.34994     13.42663     13.59382         0.080291     -0.038265     -1.556736
O       1.83674      1.76825      4.98515        -0.062681      0.290385     -2.573761
O       1.95424     13.53416      5.07011        -0.113835     -0.291048     -2.277338
O      13.22784      1.81396      4.89944         0.280051      0.539253     -1.267650
O      13.55239     13.37685      4.91144        -0.303775     -0.163588     -1.742628
O       1.80311      1.90199      9.25083         0.023112      0.153312     -0.982205
O       1.96922     13.51520      9.17281        -0.735953     -0.305826     -0.133081
O      13.43997      2.07657      9.23529        -0.061678     -0.260631     -0.881861
O      13.44188     13.48492      9.21773         0.018572     -0.231854     -2.893283
O       1.90333      5.76257      0.56770         0.625362     -0.648391     -1.449631
O       1.97332      5.74465     13.70337        -0.201923      0.078183     -2.278832
O      13.40554      5.75560      0.56397        -0.223929     -0.202390     -0.940815
O      13.46582      5.62746     13.74615        -0.153450      0.443696     -2.189049
O       1.94562      5.86033      4.87607        -0.229534      0.094968     -0.768374
O      13.59841      5.70592      4.76577        -0.337340      0.082575     -0.628116
O       1.92187      5.65818      9.34999        -0.251099      0.184570     -3.514510
O      13.35186      5.84553      9.29303         0.510617     -0.066764     -0.328728
O       1.88295      9.48008      0.46441         0.433461      0.978226     -1.476217
O       2.02159      9.54854     13.63001         0.156502     -0.020688     -1.151012
O      13.29074      9.58021      0.49199         0.501871      0.382228     -0.681681
O      13.48596      9.67323     13.59316        -0.235071     -0.195131     -1.976419
O       1.98868      9.42749      5.01330         0.126793      0.082824     -1.564558
O      13.43577      9.55208      4.94823         0.118463      0.180996     -2.898538
O       1.84345      9.55215      9.35996        -0.172525     -0.321995     -3.274554
O      13.48852      9.45680      9.28884         0.160527     -0.046464     -1.221054
O       5.55457      1.90581      0.53522         0.365155      0.239468     -0.410614
O       5.70394      2.00784     13.50566         0.184804     -0.057872     -0.800697
O       5.74097     13.62400      0.56129        -0.085290     -0.582014     -1.177535
O       5.72204     13.62153     13.51832        -0.000864     -0.815451     -1.337402
O       5.71890      1.76851      4.96526        -0.117121      0.350551     -1.536390
O       5.75861     13.28268      4.94498        -0.254586      0.372878     -0.622229
O       5.79737      1.90225      9.20229        -0.047637     -0.383495      0.258706
O       5.88030     13.51616      9.31479        -0.268531     -0.242896     -2.788895
O       5.89583      5.73049      0.60610        -0.240139     -0.106013     -1.409191
O       5.84143      5.73081     13.60197         0.017926      0.226668     -2.399704
O       5.77407      5.80619      4.88831        -0.292407     -0.265441     -0.569573
O       5.72904      5.78392      9.26451         0.076005      0.177051     -3.099707
O       5.75186      9.57245      0.58960         0.245957      0.099535     -3.023668
O       5.82822      9.58433     13.61261        -0.174457     -0.346071     -1.958423
O       5.71809      9.81602      4.97878        -0.452137     -0.130109     -1.670168
O       5.82896      9.47456      9.30858        -0.172250      0.351408     -1.525131
O       9.51250      1.96060      0.31339        -0.128631      0.230891     -0.444168
O       9.63091      1.92139     13.62410        -0.269430     -0.242367     -1.458412
O       9.54333     13.28745      0.47439        -0.210664     -0.083153      0.047055
O       9.61388     13.41946     13.60914        -0.285331      0.112590     -2.748765
O       9.57257      1.84899      5.03579         0.088490     -0.268944     -1.699460
O       9.72878     13.57754      4.88485        -0.364689     -0.297740     -0.764114
O       9.75834      2.18876      9.18755        -0.964479     -0.652605     -0.868902
O       9.77500     13.23624      9.16200        -0.331499      0.162460     -0.419149
O       9.62899      5.53782      0.64801        -0.242530      0.308286     -1.959647
O       9.58649      5.89129     13.61837        -0.308295     -0.481104     -0.278248
O       9.57218      5.86892      4.79509         0.360517      0.009434      0.056651
O       9.48601      5.66159      9.30940         0.339154      0.319367     -2.466059
O       9.50191      9.77847      0.62729        -0.070875     -0.255822     -2.276307
O       9.66414      9.48911     13.62946        -0.534866      0.421772     -0.470766
O       9.62833      9.54025      4.80052        -0.012890      0.061149      0.145795
O       9.53315      9.64276      9.30103         0.099051      0.215265     -2.247152
O       3.77684      1.99059      2.70981        -0.410895     -0.201476      0.535051
O       3.80399      1.77266     15.65943        -0.096535      1.197871      0.673741
O       3.86328     13.44684      2.72613        -1.271832     -0.253004      0.417093
O       3.78096     13.48005     15.74232         2.375013     -0.106191      0.288229
O      15.28632      1.65802      2.59123         0.407472      0.978292      0.549738
O      15.33765      1.90483     15.84475        -1.178208     -0.209889      0.543431
O       0.05265     13.37922      2.45094         0.039406      0.439498      1.092301
O      15.35579     13.25229     15.59708        -0.823850      0.354870      0.731481
O       3.80218      1.77706      7.09747         0.646335      0.131646      0.233455
O       3.80719     13.40725      7.15186         1.060732      0.043406      0.150579
O      15.27033      2.01593      6.96022         0.147537      0.105457      0.643887
O      15.33295     13.42374      6.99530         0.020971     -0.023914      0.907503
O       3.77577      1.83984     11.24497        -0.065702      0.282865      0.689968
O       3.82018     13.46067     11.28483        -0.580302      0.083120      0.481104
O      15.23091      1.93178     11.28886         1.445628      0.236127      1.027587
O      15.25784     13.39594     11.38790         1.724334     -0.261864      0.110890
O       3.92734      5.64994      2.75253        -0.832717      0.254546     -0.043872
O       3.89991      5.66787     15.66650        -0.429369      0.478846      0.725483
O       0.05627      5.78540      2.53711         0.413185      0.108860      0.884167
O      15.35666      5.67718     15.82204         0.265997      0.354840      0.357196
O       3.83530      5.80554      6.97928         0.129320     -0.020947      0.799059
O       0.03056      5.68073      6.94590        -0.748567      0.337145      0.355658
O       3.77405      5.67435     11.40156         0.223012      0.538428      0.402731
O      15.30163      5.67392     11.45319         0.951037      0.347311      0.224050
O       3.86352      9.71623      2.55865        -0.317890     -0.207930      0.745638
O       3.93130      9.48080     15.82461        -0.212867      0.165564     -0.013773
O       0.04738      9.47811      2.56687         0.436969      0.460010      0.634304
O      15.34189      9.71855     15.58357         0.693913     -0.296879      0.767747
O       3.77506      9.62332      7.22874         0.809777      0.217430      0.166365
O       0.01382      9.49449      7.01698         0.069873      0.066144      0.888529
O       3.89246      9.57431     11.31962        -0.659291     -0.306815      0.775690
O      15.34932      9.63267     11.42239         1.160350     -0.033709      0.522636
O       7.63985      1.90719      2.69764        -0.545934     -0.319815      0.144658
O       7.57217      2.02867     15.65648         0.216609     -0.503702      0.241704
O       7.56287     13.45169      2.63803         1.746774      0.320032      0.704402
O       7.62286     13.46993     15.71255        -0.950672     -0.145584      0.285668
O       7.66070      1.89967      6.91597        -0.216841      0.103689      1.137355
O       7.73379     13.29607      6.99619         0.054109      0.356509      0.425128
O       7.60850      1.87041     11.29257         1.249857      0.215557      0.524551
O       7.67847     13.44348     11.27297         1.537766     -0.164446      0.730064
O       7.77420      5.69918      2.78125        -1.927470      0.250597      0.071548
O       7.65324      5.73124     15.75484         0.529563     -0.102139      0.427176
O       7.63902      5.78777      6.87544         0.389218     -0.025191      0.808014
O       7.68301      5.66305     11.40370        -0.209103      0.285908      0.454419
O       7.63602      9.51973      2.75383         0.578404      0.335231      0.138876
O       7.69372      9.58567     15.77592        -1.101164     -0.590555      0.437953
O       7.64039      9.60132      6.94771         0.590415      0.442067      0.632958
O       7.64566      9.63973     11.28193         0.801169     -0.032858      1.097932
O      11.40573      1.93673      2.52641         0.427880     -0.083080      0.414273
O      11.51200      1.91262     15.64100        -0.743442     -0.333068      0.671480
O      11.46301     13.31445      2.54726         0.397662      0.093296      0.743235
O      11.38960     13.51505     15.61712         0.761408     -0.343035      0.831332
O      11.48816      1.94425      6.98894         0.353611     -0.148359      0.812326
O      11.53588     13.48977      7.07406         0.726782     -0.486704      0.045059
O      11.44884      1.96843     11.21865         0.193068     -0.367532      1.356310
O      11.55716     13.44451     11.32485        -0.706151     -0.337111      0.332702
O      11.52258      5.74301      2.70845         0.908030     -0.257334      0.537504
O      11.47345      5.73016     15.75673        -0.032229     -0.132971      0.624469
O      11.46406      5.78173      6.91091         0.893072      0.280549      0.241850
O      11.53958      5.91915     11.35055        -0.802287     -0.290190      0.496543
O      11.52325      9.75213      2.63828        -0.048573     -0.800590      0.547891
O      11.51341      9.53561     15.71865        -0.866001      0.464357      0.427884
O      11.52279      9.53224      6.95767        -0.192103      0.067180      0.597805
O      11.50118      9.62349     11.28098        -0.016321     -0.282637      0.653453
O       1.84198      3.77249      2.83615        -0.096514      0.307838     -0.139653
O       1.82532      3.77555     15.74986         0.865043      0.814680      0.674547
O       1.86245     15.35649      2.69568         0.963407     -0.629498      0.346023
O       1.90916     15.33358     15.75934        -0.470941     -0.459016      0.369936
O      13.48285      3.77055      2.49652         0.024832      0.338485      0.934556
O      13.35491      3.79751     15.67825         0.079068     -0.227758      0.929954
O      13.33497     15.31247      2.46525        -0.062828     -0.734875      0.925963
O      13.34685     15.30673     15.73084         0.540611     -0.311584      0.582012
O       2.15717      3.80540      6.89533        -0.970278      1.088745      0.129368
O       1.89883      0.02216      6.95970        -0.529746     -0.364467      1.280571
O      13.39581      3.90520      6.95554        -0.089225      0.045160      0.272212
O      13.49721     15.34661      6.81009        -0.303962     -0.354296      1.256865
O       1.85238      3.78924     11.50658         0.216178      0.137067      0.117787
O       1.78984      0.02700     11.33790         0.101153     -0.697866      0.415333
O      13.41043      3.90189     11.31719        -0.389717     -0.195657      0.869954
O      13.45049      0.05145     11.30926        -0.357907     -0.770435      0.264767
O       2.14632      7.71790      2.35053        -0.071984     -0.840844      1.738970
O       1.88680      7.68603     15.70378         0.270847     -0.347899      0.537256
O      13.48186      7.66378      2.49309        -0.614137      0.691912      0.958629
O      13.38086      7.65474     15.87731         0.502044      0.414878     -0.402542
O       2.03421      7.64580      7.10554        -0.802134     -0.442164      0.528193
O      13.47084      7.63662      6.93190         0.047956     -0.635565      0.645792
O       1.90387      7.62117     11.47505        -0.034468     -0.238897      0.187159
O      13.58962      7.65235     11.47733        -0.304519      0.679014      0.618564
O       1.97636     11.58839      2.61778        -0.304519     -0.426398      0.279217
O       1.96916     11.53360     15.51150         0.500630     -1.657978      1.169102
O      13.56529     11.47614      2.63359        -0.090565      0.046443      0.795251
O      13.24763     11.52391     15.68627         0.503169     -0.160732      0.487714
O       1.82802     11.50407      6.94571         0.253200     -0.604373      1.007863
O      13.43955     11.49459      7.00828         0.097069     -0.335120      0.660508
O       2.02871     11.50649     11.19176        -0.571220     -0.086833      0.889620
O      13.39410     11.46166     11.25670        -0.074116      0.819338      0.169393
O       5.80164      3.78413      2.66865        -0.036298      0.493663      0.462258
O       5.78105      3.84528     15.62080        -0.522681      0.967932      0.980339
O       5.52658      0.01832      2.56003         0.771064      0.705325      1.073105
O       5.78115      0.08770     15.51374         0.048129     -1.041605      1.024149
O       5.72551      3.81787      7.09262        -0.114687      0.142949     -0.168262
O       5.93101     15.30198      7.01606        -0.604494     -0.696920      0.322392
O       5.65728      3.83327     11.27500         0.103506     -0.497786      0.445685
O       5.71731     15.31924     11.41740         0.143667      0.909401      0.229512
O       5.83672      7.68365      2.56823        -0.582317     -0.417604      0.735139
O       5.85040      7.61206     15.80132        -0.300294      1.029100     -0.049548
O       5.76211      7.77218      6.90986        -0.451222     -0.828422      1.009289
O       5.77489      7.62970     11.31932        -0.038748      0.224864      0.829743
O       5.85814     11.56875      2.65305        -0.471132     -0.760356     -0.055989
O       5.71099     11.50979     15.61402        -0.042443     -0.134713      0.493166
O       5.77508     11.50473      7.20596        -0.339403      0.249988      0.436781
O       5.76617     11.52204     11.38492        -0.135521     -0.235785      0.404835
O       9.59412      3.79742      2.66402        -0.195289     -0.681692      0.721212
O       9.55953      3.79538     15.56813        -0.164427      0.895577      0.464199
O       9.49282     15.34440      2.38873         0.278995     -0.137586      0.746570
O       9.45237     15.35659     15.69272         0.154754     -0.096940      0.440828
O       9.56264      3.83594      6.91886         0.052600      1.352915      0.467624
O       9.65041     15.34884      7.13824        -0.406559     -0.719184      0.327578
O       9.70383      3.83773     11.26526        -0.597177      0.508551      1.297733
O       9.67855     15.34409     11.13527        -0.324292      0.026631      0.509610
O       9.71322      7.63343      2.46629        -0.207588      1.113930      0.687423
O       9.65428      7.64081     15.71259        -0.825666      0.312839      1.122550
O       9.56867      7.71857      7.07156        -0.032299     -0.307139      0.213583
O       9.59269      7.71923     11.32702        -0.458719     -0.160637      0.492875
O       9.59503     11.48586      2.70700        -0.680565      0.120527      0.715268
O       9.38669     11.48653     15.60435         0.711079      0.354575      0.582771
O       9.65003     11.47553      6.91269         0.172315     -0.276579      0.296027
O       9.60740     11.54906     11.42910        -0.083858     -0.038177      0.327519
