  # total energy = -7882.17875207 
CRSYTAL
PRIMVEC
    15.6000000000000000    0.0000000000000000    0.0000000000000000
     0.0000000000000000   15.6000000000000000    0.0000000000000000
     0.0000000000000000    0.0000000000000000    17.640000000000000
PRESSURE
-4.12427 -4.27597 -4.39129 -0.010352 0.445925 -0.003107
PRIMCOORD
320 1
Pb       3.89447      3.84828      4.36897         0.011218     -0.080810      0.238275
Pb       3.99415      3.99568     17.56515        -0.624304     -0.645153      0.543849
Pb       3.75076     15.45042      4.33713        -0.034651      0.328947      0.108269
Pb       3.79875     15.57891      0.04207         0.021762      0.153411     -0.307474
Pb      15.53248      3.84039      4.34065         0.183275      0.175426      0.173429
Pb       0.04726      3.96183     17.57317        -0.101138     -0.332081      0.799264
Pb      15.58365     15.54426      4.34221         0.080502      0.163532     -0.101702
Pb      15.41228     15.58106     17.61085         0.729907     -0.074198      0.843360
Pb       3.83418      4.00843      8.76976         0.150793     -0.342115     -0.060977
Pb       3.89150     15.57266      8.74443        -0.493824      0.601427      0.323356
Pb      15.55825      3.98692      8.81754        -0.114240     -0.661676      0.364644
Pb      15.50130      0.00853      8.63704         0.605188      0.415288      0.479459
Pb       3.95663      3.77989     13.26110        -0.659553     -0.258818     -0.665352
Pb       3.91823     15.59360     13.13967        -0.624359      0.337280      0.733063
Pb       0.02622      3.95983     13.14024         0.327898     -0.652978      0.295494
Pb      15.49576     15.54719     13.19852         0.515685      0.391083      0.075646
Pb       3.96368      7.75410      4.40987        -0.561632      0.030835     -0.024681
Pb       4.00906      7.71848     17.55188        -0.425159      0.398884      0.140540
Pb       0.02958      7.71692      4.27368         0.240692     -0.075478      0.660357
Pb       0.08517      7.72496     17.47554        -0.302289      0.518486      0.756887
Pb       3.86260      7.78430      8.76160         0.010026     -0.178064     -0.087390
Pb      15.49385      7.79765      8.78265         0.863946      0.150271      0.543576
Pb       3.91430      7.74189     13.17042         0.461774      0.065201      0.117699
Pb       0.08551      7.73746     13.14046        -0.559557      0.394162      0.597649
Pb       3.89883     11.63943      4.31549        -0.138251     -0.029731      0.486025
Pb       3.83621     11.71686     17.55949         0.373418     -0.346202      0.316239
Pb       0.01556     11.75532      4.28774        -0.050588     -0.518828      0.564797
Pb       0.00827     11.71645     17.44540        -0.446702     -0.329026      1.032115
Pb       3.82407     11.78453      8.86309         0.137569     -0.391758     -0.013431
Pb      15.54651     11.76893      8.73616         0.108598     -0.312987     -0.118672
Pb       3.85860     11.76180     13.14529         0.227494      0.007082      0.555906
Pb      15.46122     11.80886     13.15413         0.519739     -0.667037      0.840692
Pb       7.73254      3.68607      4.37554         0.269286      0.911225      0.395169
Pb       7.78143      3.94123      0.00025         0.108527     -0.123112     -0.222431
Pb       7.61354     15.50537      4.40568         0.918777     -0.285707      0.005350
Pb       7.69236      0.03155     17.54316         0.191300     -0.535801      0.234987
Pb       7.60238      3.94002      8.82531         0.471645      0.023979     -0.478093
Pb       7.73898      0.04305      8.79533         0.253546      0.113003      0.140229
Pb       7.84219      3.91861     13.27515         0.044693      0.048135     -0.239660
Pb       7.81611      0.10557     13.09615        -0.024786     -0.553603      0.932144
Pb       7.84332      7.66677      4.36288        -0.094175      0.089177     -0.122638
Pb       7.77422      7.76235     17.57884        -0.187495      0.204829     -0.098774
Pb       7.70812      7.81981      8.78485         0.137648     -0.048624     -0.025388
Pb       7.80404      7.79816     13.17736         0.023790     -0.093526      0.305031
Pb       7.76363     11.55825      4.33127         0.224363      0.304688      0.102561
Pb       7.78629     11.64644     17.44993        -0.237294      0.214871      0.775332
Pb       7.78627     11.75448      8.66132         0.001628     -0.357044      0.901461
Pb       7.73838     11.80049     13.08198        -0.260869     -0.084221      0.683026
Pb      11.76500      3.79740      4.28525        -0.224484      0.325029      0.601779
Pb      11.66053      3.80830      0.00998         0.069795      0.329853     -0.195113
Pb      11.63690     15.48818      4.33983        -0.027958     -0.170630      0.172518
Pb      11.62190     15.52255      0.00127         0.323692      0.170795      0.204880
Pb      11.66191      3.91645      8.70751        -0.073117     -0.282129      0.259299
Pb      11.72240      0.00645      8.72989        -0.259642      0.399209      0.404230
Pb      11.75246      3.91246     13.11503         0.069655     -0.355475      0.744071
Pb      11.63317      0.02407     13.11301         0.392936     -0.183132      0.806483
Pb      11.65860      7.75495      4.33006         0.262270     -0.095746      0.505704
Pb      11.64054      7.72961     17.57331         0.689965     -0.190498      0.046462
Pb      11.66103      7.79342      8.73960        -0.221346      0.533380      0.249203
Pb      11.66765      7.76697     13.09629         0.169390      0.100911      0.555140
Pb      11.68132     11.47881      4.30421         0.145971      0.614585      0.147017
Pb      11.62095     11.67780     17.52994         0.712144     -0.196500      0.397490
Pb      11.66395     11.77185      8.85181         0.164480     -0.680501     -0.184386
Pb      11.62464     11.70383     13.20696         0.406173     -0.110998      0.051759
Ti       2.03522      2.02557      2.44525        -0.739453     -0.915994     -0.933471
Ti       1.97086      1.91560     15.65607        -0.033577     -0.032720     -2.042925
Ti       1.98247     13.59999      2.30287        -0.425652      0.248412      0.286085
Ti       2.02258     13.63033     15.60396         0.188264      0.512576     -1.083634
Ti      13.67439      1.92184      2.31995         0.810961     -0.961183     -1.539513
Ti      13.66034      1.95977     15.76103        -0.018488     -0.424946     -0.532655
Ti      13.66888     13.60034      2.39028         0.222978      0.117063     -1.344330
Ti      13.72141     13.67573     15.61826        -0.354114     -0.731085     -0.367393
Ti       1.94786      2.00500      6.76473        -0.306354     -0.890296     -0.669942
Ti       1.96423     13.69254      6.85835        -0.749736      0.190684     -0.582774
Ti      13.57232      1.92571      6.82865         0.800477      0.800501     -0.519814
Ti      13.56399     13.59108      6.83226         1.102776      0.133089     -1.537471
Ti       1.93181      1.89084     11.16693         0.101390      0.235219      1.043438
Ti       1.97659     13.58139     11.19831        -0.424666      1.268759      0.015255
Ti      13.70104      1.90804     11.25196        -0.332268      0.312771     -1.470131
Ti      13.60416     13.61639     11.20283        -0.009492      0.236157     -0.246895
Ti       1.99435      5.81610      2.28263        -0.670717      0.488434     -0.851427
Ti       1.91361      5.77339     15.54949         0.366441      0.445743      1.811765
Ti      13.64001      5.79278      2.37467         0.071505      0.436516     -2.366899
Ti      13.64557      5.75919     15.64793        -0.599074      1.046395      0.193438
Ti       1.86966      5.80675      6.86139         0.395960      0.977062     -1.894017
Ti      13.64284      5.84412      6.87395         0.115141     -0.485891     -1.340406
Ti       2.03065      5.84424     11.18164        -0.198835     -1.542230      1.806385
Ti      13.66574      5.86620     11.24544         0.457203     -0.388869     -0.423371
Ti       1.98979      9.70755      2.40677        -1.226022     -0.531458      0.002037
Ti       1.95954      9.73353     15.58796        -0.058359     -0.524727     -1.188473
Ti      13.70227      9.63859      2.49247         0.011197      0.653900     -1.802347
Ti      13.66338      9.70818     15.64541         0.628902     -0.085034     -0.957181
Ti       1.99495      9.76929      6.87371        -0.315409     -0.221136     -1.613091
Ti      13.75502      9.68474      6.80139        -1.068989      0.515968     -2.335993
Ti       1.96846      9.70727     11.28008        -0.387559      0.467795     -1.016095
Ti      13.70981      9.70715     11.24863        -0.932951      0.457378     -0.686181
Ti       5.90184      1.84089      2.41386        -1.019453      0.330373      0.107677
Ti       5.81898      1.90644     15.62458        -0.306943     -0.215894     -1.616836
Ti       5.89130     13.58923      2.30013        -0.214143     -0.019714     -0.285339
Ti       5.84074     13.64714     15.65698        -0.024382     -0.143081     -1.183194
Ti       5.81270      1.91707      6.82876        -0.696033      0.779319     -0.946945
Ti       5.85440     13.60767      6.85825        -0.171302     -0.069825     -1.156275
Ti       5.87611      1.96573     11.21679        -1.065520      0.239937     -1.357152
Ti       5.79351     13.75436     11.20575         0.571950     -1.784826      0.594917
Ti       5.79739      5.73280      2.39910         0.583712      0.644491     -0.986895
Ti       5.81653      5.79676     15.59904         0.616670      0.685008      2.556062
Ti       5.81603      5.80750      6.69655        -0.082727      0.275993      0.539781
Ti       5.90755      5.80473     11.11560        -0.713125      0.446797     -0.218718
Ti       5.79990      9.66853      2.38803         0.369494     -0.074621     -0.698921
Ti       5.80963      9.79083     15.61797         0.084426     -0.732975      0.150231
Ti       5.77738      9.71659      6.81966         0.961361     -0.507320     -0.477212
Ti       5.80406      9.74818     11.22848         0.719972      0.237398     -0.445500
Ti       9.79039      1.96525      2.42079        -0.164664     -1.184748     -0.580887
Ti       9.70879      1.83741     15.65307         0.537188      0.992357      0.224084
Ti       9.70722     13.64837      2.36798         0.041080      0.072169      0.686588
Ti       9.79085     13.66060     15.62237        -0.392022     -0.384872     -1.311836
Ti       9.66200      2.01534      6.79593         0.402527     -0.182242      0.062576
Ti       9.74797     13.72006      6.84289         0.272306     -0.067007     -2.235975
Ti       9.75742      1.88816     11.15488         0.732432      0.660370     -1.409512
Ti       9.72088     13.62208     11.19520         0.361934      0.090715     -0.114452
Ti       9.76113      5.78856      2.38033        -0.399827      0.095026      0.162505
Ti       9.71419      5.78576     15.63223         0.330911      0.035235     -1.205114
Ti       9.68615      5.84683      6.85602         0.022563     -0.449849     -1.229716
Ti       9.72511      5.71766     11.17479         0.278823      0.710673     -0.268190
Ti       9.66347      9.68923      2.39193         0.467368     -0.010844     -0.647989
Ti       9.75542      9.73591     15.63323        -0.326048     -0.874743     -0.371294
Ti       9.74126      9.77752      6.86423         0.076797     -0.122657     -1.208824
Ti       9.71855      9.74662     11.33797         0.795982     -0.836677     -2.125457
O       2.12404      1.90790      0.67767        -0.148661     -0.053144      0.421469
O       2.03584      1.98920     13.80976        -0.058699     -0.004591      2.219804
O       2.00180     13.68291      0.54718         0.060802     -0.300705      0.518911
O       2.20762     13.60717     13.79248        -0.679211     -0.195976      1.262865
O      13.70001      1.88298      0.48845        -0.137759      0.113364      1.383413
O      13.72034      1.79815     14.01916        -0.251900      0.147141      0.100671
O      13.90156     13.62597      0.59267        -0.933949     -0.374396      1.096435
O      13.79366     13.67605     13.81550        -0.388886      0.096237      0.601688
O       1.90667      1.90863      4.96130         0.272630      0.363256      0.640093
O       1.90711     13.80744      5.09125         0.305706     -0.317939      0.354371
O      13.63507      2.18713      5.07990        -0.134747     -0.609581      0.199298
O      13.61102     13.79562      5.05608        -0.164071     -0.620948      0.924663
O       1.94111      1.86465      9.43971         0.068039      0.244877     -0.365035
O       2.04722     13.60895      9.44228        -0.291687      0.072913     -0.169204
O      13.66354      1.93486      9.42903        -0.009794     -0.050199      1.059502
O      13.53837     13.60348      9.41775         0.363732     -0.117099      0.773238
O       1.95908      5.75160      0.47506         0.156845      0.381842      1.524372
O       2.03095      5.70812     13.83370        -0.156003      0.247016     -0.722712
O      13.48732      5.85077      0.54902         0.478346     -0.076616      1.822403
O      13.62911      5.73627     13.89699         0.156654      0.127062     -0.006095
O       1.84596      5.76880      5.08313         0.022520     -0.190960      0.608152
O      13.74620      5.80827      5.10159        -0.259622     -0.159398      0.581355
O       2.00225      5.75217      9.48605        -0.011061      0.334666     -1.411069
O      13.77372      5.87539      9.48085        -0.401514     -0.155681      0.204467
O       1.89570      9.61725      0.68613         0.341522      0.287867     -0.663196
O       1.92796      9.82178     13.79086         0.394810     -0.371412      0.768663
O      13.67707      9.75185      0.68457         0.091059     -0.277239      1.326390
O      13.75432      9.80109     13.87585        -0.535692     -0.330098      0.813360
O       2.17543      9.89518      5.11377        -0.249964     -0.465183      1.160586
O      13.65415      9.57245      4.95618         0.006194      0.467713      1.671512
O       1.98442      9.65903      9.50400        -0.079559      0.194979      0.679773
O      13.64714      9.77284      9.46156         0.384783     -0.197492      0.607047
O       5.74951      1.90003      0.68425         0.485756     -0.123992     -0.264553
O       5.80989      1.92659     13.78489         0.231900      0.311546      1.055604
O       5.83780     13.68386      0.52828         0.247308     -0.274903      0.688188
O       5.74438     13.55138     13.86638         0.269725      0.254872      0.662905
O       5.89784      2.09409      5.03092         0.095229     -0.810172      0.761847
O       5.84381     13.62608      5.07524        -0.020023      0.093793      1.406623
O       5.86403      1.83937      9.39917        -0.072959      0.390303      1.422116
O       5.98828     13.60613      9.49585        -0.470376      0.392166     -1.082762
O       5.85295      5.74238      0.57381        -0.153341      0.118310      0.959092
O       5.94199      5.78455     13.93063        -0.106036     -0.157401     -1.941586
O       5.77749      5.85459      4.93798         0.025288     -0.223978     -0.254555
O       5.91650      5.97121      9.32739        -0.177822     -0.705713      0.910304
O       5.92576      9.66182      0.61867        -0.529650      0.098613      0.651521
O       5.75252      9.61296     13.89419         0.313532      0.281179     -0.636580
O       5.69653      9.65532      5.03667         0.212058      0.477356      0.677742
O       5.92509      9.69221      9.46697        -0.193265     -0.038659      0.943638
O       9.80577      1.84662      0.64082        -0.366825      0.282935      0.924615
O       9.72979      1.84370     13.90516        -0.160169      0.059171      0.073224
O       9.69221     13.67162      0.62713         0.242361     -0.046919      0.073888
O       9.83315     13.67449     13.81544        -0.166857     -0.077436      1.281865
O       9.68885      2.03168      5.02475        -0.105161      0.051818      0.538939
O       9.73790     13.73320      5.01720         0.185260     -0.089608      1.836888
O       9.83081      1.90439      9.33909        -0.238592      0.065543      1.898649
O       9.87807     13.64860      9.43913        -0.408694     -0.048579      0.098592
O       9.79896      5.75512      0.62275        -0.160186      0.181707      0.137466
O       9.66372      5.71691     13.80163         0.102073     -0.151107      1.370261
O       9.79277      5.80497      5.07984        -0.434058      0.402593      0.598998
O       9.67734      5.80425      9.40325         0.172566     -0.126627      0.906004
O       9.73350      9.56776      0.63712        -0.114007      0.360784      0.117497
O       9.78063      9.67681     13.87686         0.119910      0.366749      0.123193
O       9.54433      9.71048      5.05327         0.652021      0.074497      1.617495
O       9.80407      9.58038      9.51760        -0.295584      0.626719      1.062044
O       3.92324      1.93071      2.93302         0.136909     -0.489462     -0.191288
O       3.91958      1.96268     16.03724        -0.118325      0.127892      0.012077
O       3.94710     13.61050      2.75308        -0.518087      0.058397     -0.178130
O       3.94809     13.57708     16.12594        -0.439652     -0.127103     -0.157842
O       0.02405      2.01195      2.84015        -0.332329     -0.435894     -0.357051
O       0.05679      1.91537     16.03507        -0.113808     -0.540006      0.156867
O      15.56841     13.56480      2.81395         0.579895      0.309705      0.015004
O       0.02510     13.71793     16.08103         0.552110     -0.365218     -0.881226
O       3.86724      1.92976      7.06699         0.634928     -0.135307      0.576703
O       3.87226     13.61155      7.33105         0.880146      0.223979     -0.462758
O       0.07896      1.83585      7.08366        -0.924526      0.517396      0.486530
O      15.56252     13.65256      7.24375         0.140901     -0.041676      0.099925
O       3.90436      1.98739     11.64267         0.721911     -0.093143     -0.389010
O       3.90942     13.75479     11.60041         0.122267     -0.660634     -0.421969
O      15.52112      1.87370     11.71712         0.982024      0.086690     -0.361722
O       0.01871     13.62867     11.65127        -0.169037      0.272812     -0.653099
O       3.84562      5.84536      2.68967         0.753167     -0.381997      0.172733
O       3.87993      5.89521     16.06429         0.373829     -0.768534     -0.695668
O      15.55534      5.85131      2.64879         0.472637     -0.523994      0.193019
O       0.04526      5.85106     16.07921        -0.813418     -0.392401     -0.722468
O       3.77676      5.92839      7.20528         1.273476     -0.452984      0.252879
O      15.59301      5.83149      7.36054        -0.190123     -0.087756     -0.040493
O       3.98107      5.72230     11.57360        -0.462837      0.660967     -0.047884
O       0.00764      5.81445     11.59110         0.235760      0.392865      0.239485
O       3.80531      9.76849      2.88632         1.843404      0.013812     -0.402684
O       3.90315      9.77351     15.97482        -0.177171     -0.260255      0.445593
O       0.07352      9.73270      2.95665        -0.817287     -0.119287     -0.367305
O       0.07112      9.67233     15.95627        -0.517160      0.362073      0.329791
O       4.00189      9.71791      7.40090        -1.322281      0.205449     -0.302994
O       0.03555      9.80408      7.11369         0.045002     -0.125870      0.539665
O       3.94382      9.67659     11.62432        -0.584582     -0.155425     -0.022768
O      15.58484      9.71555     11.72688         0.919441     -0.103418     -0.517335
O       7.78530      1.95888      2.84865         0.071461     -0.253070     -0.437803
O       7.77101      1.92689     15.95476         0.176936     -0.256502      0.444186
O       7.74509     13.67672      2.80795         0.620613     -0.419126     -0.051343
O       7.82158     13.62555     16.04218        -0.091995      0.166646     -0.218033
O       7.71565      1.93713      7.36155         0.609934      0.390933     -0.749874
O       7.84093     13.67793      7.16050        -0.506163     -0.137507      0.289838
O       7.78886      1.88204     11.56922         0.537827      0.595258     -0.063833
O       7.85512     13.62230     11.62346        -0.408840      0.188957     -0.111724
O       7.81671      5.81469      2.70139        -0.374620      0.303381      0.253663
O       7.78424      5.83420     16.02039         0.134591     -0.553642      0.257821
O       7.71684      5.70290      7.20664         0.014326      0.485992     -0.322759
O       7.84031      5.71637     11.63093         0.053843      0.138630     -0.211720
O       7.73331      9.62865      2.78170         0.212829      0.137996      0.290320
O       7.77274      9.70026     16.06682         0.608363      0.299263     -0.284935
O       7.74056      9.85805      7.26367         0.845125     -0.625303     -0.223433
O       7.83102      9.80412     11.70074        -0.630911     -0.537992     -0.048372
O      11.74786      1.90568      2.72795        -0.444014      0.169658      0.209038
O      11.67844      1.90169     16.07315        -0.101451     -0.122144      0.011482
O      11.70624     13.68951      2.86932        -0.513885     -0.454161     -0.679802
O      11.76249     13.57846     16.08314        -0.891252      0.102192     -0.289274
O      11.67110      1.97148      7.19924         0.017386      0.329890     -0.154462
O      11.73972     13.63685      7.32978        -0.709142      0.281404     -0.456356
O      11.71420      1.87888     11.73437        -0.183025      0.197174     -0.669828
O      11.66167     13.65534     11.62631         0.632055     -0.290223     -0.056230
O      11.68204      5.90280      2.80088         0.124702     -0.575599      0.070411
O      11.68336      5.76310     16.07592        -0.350292      0.136463     -0.423466
O      11.70440      5.89951      7.17470         0.311636     -0.283979      0.400820
O      11.76207      5.72043     11.61875        -0.483891      0.719360     -0.276791
O      11.69794      9.66416      2.81527        -0.188416      0.109212      0.068238
O      11.72988      9.74060     16.11456        -0.668224      0.181994     -0.438353
O      11.73955      9.72226      7.15011        -1.045483     -0.579676      0.184644
O      11.74228      9.78923     11.62955        -0.356214     -0.265989      0.539971
O       2.02911      3.88814      2.72101        -0.255292      0.459715      0.268577
O       1.80730      3.86564     16.12527         1.338227     -0.103449     -0.984716
O       1.85952     15.49881      2.81016         0.693846      0.113565     -0.024726
O       2.14272     15.47779     15.93733        -0.479407      1.144412      0.170528
O      13.64825      3.80703      2.69313        -0.308847      1.029802      0.299398
O      13.70030      3.88968     16.14699        -0.193535     -0.449984     -0.496331
O      13.69462     15.55136      2.61677         0.051654      0.647977      0.630263
O      13.58924     15.48974     16.23139         0.098544      0.861190     -0.877367
O       2.01204      3.91779      7.31984        -0.548290     -0.696934     -0.294993
O       2.00117      0.03797      7.26746        -0.002599     -0.739096     -0.096853
O      13.72876      3.87701      7.30919        -0.429130      0.306504     -0.045701
O      13.62988      0.00879      7.16156        -0.235365     -0.061482      0.223272
O       1.91500      3.87906     11.63420         0.079215      0.093362     -0.255233
O       2.03886      0.02895     11.64936        -0.584677     -0.431684     -0.300239
O      13.72798      3.85465     11.73405        -0.475047      0.074076     -0.580118
O      13.64775     15.58306     11.62614        -0.069601     -0.840093     -0.071272
O       1.98729      7.74555      2.81950        -0.134668     -0.327711     -0.145320
O       1.91759      7.74306     15.97768         0.577381      0.328285     -0.406162
O      13.70900      7.70552      2.87525        -0.449344      0.371815     -0.380211
O      13.64819      7.75164     16.01890        -0.089101      0.224251     -0.087265
O       1.90276      7.78569      7.17393         0.098962      0.771278      0.480503
O      13.79655      7.78557      7.30524        -0.852881      0.017109     -0.437185
O       1.96014      7.75064     11.70336         0.309718      0.228269     -0.324706
O      13.65133      7.80370     11.63096         0.018977     -0.641762      0.074947
O       1.89744     11.66845      2.79604         0.476356      0.939707     -0.191614
O       1.99165     11.67100     16.13559        -0.137866      0.090375     -0.725408
O      13.62941     11.67610      2.87187        -0.129426     -0.309324      0.039294
O      13.71434     11.71110     15.95735        -0.065167     -0.175658      0.312499
O       1.92292     11.73805      7.21490         0.435863     -0.240481      0.558100
O      13.63204     11.62491      7.17329         0.081172      0.704570      0.156410
O       1.99187     11.71950     11.51659         0.212072     -0.804778      0.172446
O      13.70968     11.66268     11.69567        -0.567317      0.926530     -0.540517
O       5.80315      3.87405      2.76729         0.050829     -0.040383      0.105930
O       5.88211      3.81519     16.08472        -0.084911      0.760088     -0.391101
O       5.92399     15.51762      2.75371        -0.535023      0.477908      0.069859
O       5.82660     15.57730     15.96136         0.120435      0.314201      0.322379
O       5.71535      3.90140      7.11920         0.216568     -0.195006      0.630954
O       5.87356      0.01486      7.30932        -0.234096     -0.950887     -0.612860
O       5.87390      3.91874     11.53901         0.388206     -0.961521      0.037531
O       5.90799     15.55731     11.65695        -0.080029      1.104103     -0.365071
O       5.70763      7.76039      2.79495         0.407127     -0.019977     -0.125210
O       5.89387      7.79110     16.06149        -0.419160     -0.470964     -0.097116
O       5.86248      7.70769      7.09087         0.047925      1.035155      0.373324
O       5.88870      7.68017     11.64317         0.112488      0.727794      0.012431
O       5.92105     11.63651      2.88909        -0.534782      0.128934     -0.752182
O       5.85414     11.71244     16.00866         0.124282     -0.523558      0.175414
O       5.84204     11.67322      7.32877        -0.168336      0.868488     -0.582488
O       5.80434     11.72558     11.60929         0.131310     -0.568619     -0.024593
O       9.70342      3.86007      2.87500         0.541388      0.099476     -0.633441
O       9.74937      3.85075     16.17594        -0.429930     -0.107916     -0.613942
O       9.69731     15.59546      2.90897         0.072826      0.137861     -0.452273
O       9.72099     15.50353     16.13741         0.189775      0.754319     -0.432933
O       9.67713      3.94248      7.27392         0.354345     -0.896017     -0.001251
O       9.76995      0.08247      7.17666        -0.063020     -0.737002      0.106952
O       9.91235      3.82161     11.58687        -1.041770     -0.037237     -0.153570
O       9.71413      0.02273     11.61808         0.206415     -0.487158     -0.257444
O       9.75172      7.81172      2.90605        -0.292783     -0.786633     -0.360496
O       9.68405      7.76001     15.91204         0.436393     -0.086486      0.461805
O       9.65098      7.70417      7.35933         0.139426      1.365614     -0.619776
O       9.79549      7.73593     11.71716        -0.362621     -0.110443     -0.337973
O       9.68729     11.65675      2.73690         0.088295      0.030793      0.182972
O       9.69212     11.69796     16.04614         0.575418     -0.359857     -0.207289
O       9.85822     11.76617      7.20533        -0.521464     -0.917193      0.060235
O       9.77498     11.66671     11.70549        -0.049642      0.474231     -0.372507
