  # total energy = -7881.49321555 
CRSYTAL
PRIMVEC
    15.3600000000000000    0.0000000000000000    0.0000000000000000
     0.0000000000000000   15.3600000000000000    0.0000000000000000
     0.0000000000000000    0.0000000000000000    17.440000000000000
PRESSURE
1.82393 1.67545 -3.99654 -0.190488 -0.483351 -0.004121
PRIMCOORD
320 1
Pb       3.79868      3.85795      4.40103         0.225602     -0.344122      0.233363
Pb       3.98410      3.78886     17.34132        -0.412621     -0.166302      0.551511
Pb       3.80419     15.32639      4.35892        -0.072502     -0.117509      0.117381
Pb       3.92095      0.03828     17.39548        -0.894555     -0.451754      0.124310
Pb      15.32568      3.82918      4.42779         0.416494     -0.309480     -0.085372
Pb       0.12785      3.85435      0.05263        -0.407537     -0.137425      0.124715
Pb       0.04456     15.29534      4.32132         0.153575      0.189014      0.296991
Pb      15.09989     15.30303      0.01178         0.672124     -0.239914     -0.469434
Pb       3.75636      3.96853      8.53092        -0.062149     -0.707074      1.628942
Pb       3.82431     15.33577      8.83792         0.134401     -0.021157     -0.388641
Pb      15.04200      3.91523      8.60766         1.169944      0.343792      0.496828
Pb      15.27959      0.18497      8.67988        -0.579479     -0.944085      0.937365
Pb       3.88683      3.75722     12.93187        -0.287243      0.069068      0.103899
Pb       3.75215     15.21569     12.94283        -0.010201      0.465869      0.441338
Pb      15.33417      3.67886     13.11561         0.062173      0.392912      0.113898
Pb       0.01870      0.03267     12.89872        -0.086076     -0.482155      1.169814
Pb       3.94118      7.68848      4.24826        -0.822203     -0.128191      0.750664
Pb       3.69134      7.65159      0.04166         0.299672     -0.020615     -0.381940
Pb       0.20884      7.69114      4.29480        -0.667472      0.216556      0.501105
Pb      15.32420      7.80429     17.32149        -0.338077     -0.656379      0.875049
Pb       3.97111      7.61120      8.70513        -0.477666      0.465615      0.561491
Pb      15.33889      7.63111      8.66932        -0.161707     -0.121025      0.652711
Pb       3.81813      7.63992     13.06912        -0.186382      0.012017     -0.188188
Pb       0.07740      7.69974     13.09875        -0.159724     -0.376389      0.445489
Pb       3.63596     11.47826      4.30551         0.417238      0.134488      0.196224
Pb       4.02501     11.29848     17.30284        -0.770178      0.607631      0.589363
Pb       0.17621     11.66630      4.15110        -0.944824     -0.651941      0.945935
Pb      15.26866     11.46145     17.30051         0.103702      0.135236      0.950597
Pb       3.78157     11.60865      8.71393         0.072958     -0.350896      0.142306
Pb      15.35194     11.34572      8.64902        -0.118485      0.722546      1.128611
Pb       3.98081     11.50448     12.96217        -0.780948     -0.376260      0.735066
Pb       0.12767     11.46978     13.14240        -0.168299      0.448186      0.141051
Pb       7.69285      3.71537      4.40267        -0.054173     -0.019734      0.195035
Pb       7.70782      3.91507     17.26440        -0.187563     -0.621201      0.775567
Pb       7.68283      0.04938      4.32187         0.240211     -0.025101      0.935948
Pb       7.39435     15.33311     17.31074         0.859903      0.113850      0.539695
Pb       7.65570      3.81654      8.68331        -0.140246      0.140085      0.020845
Pb       7.68518     15.25015      8.58307        -0.033265      0.543842      0.514902
Pb       7.82850      3.98669     13.26577        -0.313567     -0.701431     -0.344798
Pb       7.70595      0.14031     13.01190        -0.419794     -0.103840      0.772292
Pb       7.52994      7.51671      4.26349         0.923095      0.246997      0.064142
Pb       7.63559      7.63875     17.42715        -0.052843      0.075135      0.404349
Pb       7.59202      7.86993      8.60907         0.148392     -0.791194      0.799677
Pb       7.62067      7.60671     12.97226        -0.173832      0.680125      0.247096
Pb       7.67576     11.39250      4.35819         0.320223      0.142279      0.178243
Pb       7.55006     11.65117     17.29810         0.182742     -0.465991      0.609371
Pb       7.72257     11.47663      8.68149        -0.372312      0.085808      0.270635
Pb       7.88969     11.65991     13.06495        -0.957807     -1.044963      0.128544
Pb      11.59229      3.75215      4.36338        -0.525030     -0.130433     -0.086660
Pb      11.54387      3.82095      0.03247        -0.016707      0.067010      0.367312
Pb      11.58235      0.00932      4.23606        -0.419924     -0.457404      0.751112
Pb      11.40862     15.29248     17.19380         0.151588      0.299972      1.911473
Pb      11.58377      4.06153      8.66451        -0.625414     -0.306435      0.779448
Pb      11.47579     15.27254      8.62841         0.229059     -0.151890      0.217629
Pb      11.54059      3.69740     13.27866        -0.111325      0.622448     -0.632105
Pb      11.41276     15.33403     13.02935         0.372084     -0.222388      0.198940
Pb      11.59169      7.69413      4.20115        -0.713318     -0.066546      0.445645
Pb      11.41062      7.57784     17.43842         0.463733      0.322392      0.720439
Pb      11.56405      7.68599      8.63019        -0.237835     -0.681305      1.115051
Pb      11.39818      7.71627     12.99220         0.271312     -0.721474      0.826105
Pb      11.57317     11.37249      4.39898        -0.338601      0.838790     -0.241331
Pb      11.36809     11.49468     17.33531         0.115245     -0.395482      0.847215
Pb      11.49307     11.51257      8.84908         0.227522      0.349809     -0.411433
Pb      11.47198     11.44765     12.93894        -0.130210      0.452769      1.007343
Ti       1.92719      1.90034      2.39124         0.335806     -0.376684      0.082896
Ti       1.86905      1.83885     15.44474        -0.049961     -0.403910      0.068982
Ti       1.88893     13.39612      2.14448         0.831517      0.903576      0.020197
Ti       1.87710     13.35694     15.48543        -0.069622      0.690290     -1.166717
Ti      13.47005      1.87023      2.34012        -0.073957      0.406538     -0.509441
Ti      13.41456      1.87798     15.48108         0.514293     -0.188435     -1.243558
Ti      13.39167     13.41973      2.30424        -0.760955     -0.306755     -0.537300
Ti      13.29629     13.31964     15.39351         1.807033      0.453766     -1.383992
Ti       1.89869      1.89321      6.81322         0.170512      1.086039     -1.270432
Ti       1.79778     13.49435      6.85379         0.761488     -0.796411     -1.057866
Ti      13.34864      1.92499      6.65936        -0.551253     -0.757714     -0.541249
Ti      13.43551     13.35843      6.76380        -0.772244      0.954377     -1.155110
Ti       1.91324      1.91160     10.97473         0.059921      0.294484     -1.166631
Ti       1.85417     13.36817     11.03109         0.065500     -0.050175     -1.221366
Ti      13.39098      1.89647     11.04041        -0.618498      0.061744     -1.040747
Ti      13.41060     13.42327     11.14331        -0.400333     -0.129042     -2.135765
Ti       1.90765      5.63621      2.37228         0.499727      1.093884     -0.704803
Ti       1.87418      5.69687     15.46559        -0.054072      0.856786     -1.470185
Ti      13.47189      5.70996      2.39806        -0.129514      0.340527     -1.445843
Ti      13.44235      5.67580     15.52434        -0.189177      0.658116     -1.360674
Ti       1.93459      5.82397      6.73544        -1.048551     -0.988217     -0.661475
Ti      13.38303      5.81954      6.50178         0.130570     -0.000407      0.070685
Ti       1.84294      5.71894     11.12638         0.503975     -0.027926     -1.924665
Ti      13.41076      5.73250     11.29434        -1.062635     -0.070768     -1.593111
Ti       1.88824      9.53331      2.22070        -0.372945      0.569958     -0.819431
Ti       1.83282      9.58598     15.41771         1.070333     -0.310112     -0.595457
Ti      13.43586      9.60537      2.35251         0.644772     -0.022741     -0.967886
Ti      13.29972      9.54403     15.38461        -0.158183     -0.045194     -1.087627
Ti       1.87663      9.56644      6.71076         0.830128      0.336577     -1.457805
Ti      13.41934      9.59165      6.68888         0.014181     -0.306216     -1.068702
Ti       1.87173      9.57076     11.07366         0.540416     -0.128867     -0.492637
Ti      13.43039      9.60226     11.19100         0.275998     -1.042333     -1.955799
Ti       5.77135      1.89214      2.41849         0.003781      0.194464     -1.550150
Ti       5.73532      1.86530     15.32662         0.192654      0.330245     -1.896439
Ti       5.76333     13.38658      2.44980        -0.720891     -0.144882     -1.614758
Ti       5.66342     13.36433     15.25967        -0.027956      0.137033     -0.018073
Ti       5.72860      1.90633      6.81809         0.351713     -0.003894     -1.741590
Ti       5.74143     13.40507      6.75285        -1.135296      0.089026     -1.097717
Ti       5.80549      1.90101     11.01122        -0.711846      0.228100     -0.841641
Ti       5.79238     13.47091     11.09884        -0.429897     -1.445852     -1.178214
Ti       5.70111      5.62665      2.32904         0.487394      0.280047     -0.996111
Ti       5.66670      5.75427     15.42311         0.125660      0.012490     -0.890924
Ti       5.77713      5.74770      6.67461         0.045467     -0.120884     -0.674056
Ti       5.74347      5.70283     11.07396        -0.947177      0.397241     -2.016007
Ti       5.74032      9.60406      2.37619         0.013362     -0.267555     -2.211946
Ti       5.74788      9.47462     15.33748        -0.783787      0.471610     -0.772317
Ti       5.69848      9.61874      6.66477        -0.923857      0.223653     -0.704211
Ti       5.68613      9.56645     11.10811         0.802389      0.288776     -0.977772
Ti       9.62218      1.83650      2.29095        -0.357099      0.130660     -1.361751
Ti       9.59217      1.86533     15.46755        -1.055411      0.222446      0.006021
Ti       9.51634     13.41653      2.40187         0.962838     -0.787091     -0.870816
Ti       9.56119     13.41108     15.37634        -1.197878     -0.056249     -1.482242
Ti       9.62605      1.96315      6.77192        -1.077852     -0.533008     -2.013914
Ti       9.55285     13.41164      6.67599         0.809614     -0.036428     -0.688006
Ti       9.56127      1.92159     10.99084        -0.339381      0.463426      0.864724
Ti       9.51948     13.51139     11.05594         1.138713     -0.958701     -1.829887
Ti       9.65066      5.60487      2.43930        -1.075485      1.118916     -1.669790
Ti       9.62572      5.76727     15.45122        -0.263401     -0.283605     -0.906659
Ti       9.53848      5.75258      6.67892         0.150351      0.193987     -0.099996
Ti       9.57323      5.67068     11.10759         1.251314     -0.014692     -1.257972
Ti       9.60582      9.56231      2.28576        -0.825205     -0.622038      0.123015
Ti       9.46043      9.54584     15.40414         1.412998      0.009197     -0.823182
Ti       9.64627      9.59985      6.74385        -0.635100     -0.749053     -1.124582
Ti       9.55195      9.52664     11.07346        -1.673783      0.204546     -1.131010
O       1.92359      1.98385      0.64482         0.022312     -0.065855     -0.281345
O       1.78011      1.81309     13.67305         0.334584      0.252153      0.460853
O       2.01011     13.41947      0.42369        -0.445311      0.151138     -0.302409
O       1.83187     13.36773     13.62184         0.049098      0.158990      1.522005
O      13.39531      1.78630      0.53557         0.314427      0.072061      0.707011
O      13.43147      1.98078     13.65801         0.077313     -0.283779      1.134048
O      13.36378     13.46033      0.49152        -0.053896      0.095670      1.051419
O      13.31701     13.29641     13.58815        -0.104438      0.210419      0.798665
O       1.94111      1.89409      4.96658        -0.208809     -0.060562      1.441402
O       1.81026     13.43196      4.96692        -0.126554     -0.050793      1.539470
O      13.38833      1.93103      4.81868        -0.114781      0.124605      1.663599
O      13.47033     13.41832      4.94028         0.104788     -0.175524      1.220060
O       1.82640      1.93504      9.18288        -0.034718     -0.113820      0.729979
O       1.86703     13.26924      9.20272         0.192161      0.460459      1.284528
O      13.30615      1.85781      9.16281         0.256439      0.423832      2.494587
O      13.28894     13.40137      9.26364        -0.057077     -0.036977      2.001324
O       1.96982      5.64327      0.58345        -0.156494      0.291452      0.566025
O       1.83804      5.67303     13.64929         0.220679      0.239489      0.657179
O      13.37567      5.68327      0.56593         0.196896     -0.107353      1.057949
O      13.25345      5.64729     13.68564         0.699088     -0.077595      1.508527
O       1.91759      5.77559      4.95707        -0.113168      0.039605      0.082241
O      13.27250      5.76950      4.71205         0.503464     -0.125917      0.745977
O       1.78637      5.75441      9.28286        -0.017105     -0.010392      1.192446
O      13.34807      5.67626      9.41657         0.182054      0.022663      1.401253
O       1.94224      9.60371      0.38645        -0.011219     -0.566288      1.414743
O       1.82311      9.56886     13.60327        -0.141138      0.041888      0.831157
O      13.58919      9.65417      0.59088        -0.786292     -0.200785      0.369869
O      13.24925      9.57480     13.54322         0.371238      0.069825      1.126972
O       1.85009      9.66152      4.83875        -0.061519     -0.120860      1.491137
O      13.32127      9.61297      4.83176         0.208803     -0.111931      1.680737
O       1.83955      9.49268      9.30524        -0.196663      0.341533      0.109513
O      13.48365      9.48532      9.30453        -0.263075      0.417422      2.044794
O       5.81167      1.94347      0.49968        -0.365077     -0.413706      1.890679
O       5.78466      1.85579     13.47078        -0.419458      0.096393      1.723356
O       5.82000     13.32369      0.51205        -0.068284      0.400250      2.045164
O       5.69255     13.28066     13.49305        -0.037004      0.724643      0.129005
O       5.82864      1.99339      4.93275        -0.410242     -0.408932      1.666701
O       5.72338     13.39790      4.96661        -0.189416     -0.096067      0.335831
O       5.72810      1.85361      9.17679         0.305954      0.164705      1.019496
O       5.62995     13.36757      9.27230         0.472159      0.343658      1.070921
O       5.60037      5.59080      0.46293         0.611361      0.231855      1.424158
O       5.62258      5.77634     13.59273         0.130810     -0.096150      0.996058
O       5.72303      5.70071      4.86730         0.040936      0.285212      0.803105
O       5.66879      5.80169      9.21053         0.344114     -0.255402      1.532649
O       5.78411      9.64934      0.43474        -0.299700     -0.129429      1.976268
O       5.60640      9.45705     13.53299         0.526783     -0.074111      1.065161
O       5.54622      9.57924      4.84839         0.613136      0.290801      0.810157
O       5.70334      9.56339      9.28475        -0.010862     -0.024877      0.403832
O       9.56775      1.88691      0.45789         0.038013     -0.024793      1.040166
O       9.43412      1.80009     13.70614         0.419991      0.064050      0.172377
O       9.52147     13.35664      0.58136        -0.145430      0.025569      0.745399
O       9.54484     13.50722     13.53259         0.221548     -0.368144      1.436251
O       9.50953      1.86765      4.91283         0.335551      0.346281      1.301469
O       9.52472     13.34334      4.90485        -0.073239      0.052876      0.440309
O       9.43392      1.88213      9.25848         0.371493      0.255946     -0.395779
O       9.56342     13.49370      9.19493        -0.198747     -0.341609      1.392315
O       9.61257      5.68960      0.54344        -0.106846     -0.364503      1.569498
O       9.66156      5.66304     13.64650        -0.578916      0.480347      1.072779
O       9.41485      5.66053      4.91821         0.560183      0.293251     -0.123389
O       9.81885      5.70841      9.29440        -0.973583     -0.277523      1.381160
O       9.60382      9.43757      0.51336        -0.321702      0.590669      0.485306
O       9.50167      9.60948     13.60432         0.095015     -0.426528      0.564490
O       9.55248      9.57070      4.95409         0.332248      0.178919      0.719129
O       9.51570      9.48409      9.25053         0.031002      0.469969      0.941581
O       3.89781      1.89986      2.81846        -0.663679     -0.052836     -0.163787
O       3.90079      1.84961     15.80979        -1.546714      0.575465     -0.259708
O       3.75678     13.35678      2.72264         0.835567      0.496326      0.029708
O       3.79790     13.44752     15.74262         0.141699     -0.661284     -0.233922
O       0.04367      2.01861      2.84072        -0.705231     -0.363616     -0.457006
O      15.29227      1.90130     15.90663         0.862539     -0.180966     -0.201374
O      15.30480     13.51336      2.64701         0.602991     -0.350207     -0.257872
O      15.24993     13.36094     15.84534         0.435126      0.409528     -0.306997
O       3.75058      1.88240      7.18280         0.426748      0.181390     -0.412339
O       3.71876     13.53126      7.14353         0.138784     -0.470283      0.046147
O      15.16836      1.88560      7.14093         0.760705      0.669889     -0.733302
O      15.26416     13.45598      7.29659         0.617762     -0.307526     -0.734275
O       3.76022      1.86636     11.36352         0.878995     -0.222648      0.232429
O       3.76244     13.32313     11.45570         0.787084      0.522396     -0.306074
O      15.33191      1.92680     11.43768        -0.605534     -0.396479     -0.364042
O      15.31126     13.45994     11.46721        -0.269319     -0.200827     -0.232359
O       3.82343      5.76611      2.78326        -0.221243     -0.267830     -0.245068
O       3.77281      5.79955     15.85968         0.599071     -0.180997     -0.306724
O       0.02000      5.69153      2.82701        -0.565142     -0.018709     -0.298879
O      15.35250      5.79562     15.91277        -0.648177     -0.202272     -0.250288
O       3.81382      5.74656      7.10325        -0.013157      0.512711     -0.473281
O      15.23949      5.68277      7.02093         0.026865      0.316669     -0.192685
O       3.73597      5.73836     11.35497         0.870925     -0.003240      0.627277
O      15.30134      5.75936     11.57268        -0.036011     -0.161831     -0.035516
O       3.70368      9.49445      2.71577         1.223776      0.809728     -0.381482
O       3.81952      9.55360     15.70702         0.266794      0.024772      0.174835
O       0.01428      9.60188      2.66008        -0.507042     -0.184482      0.238339
O      15.29924      9.57179     15.84932        -0.490149      0.250227     -0.830148
O       3.73624      9.46650      7.06682         0.857669      0.418961     -0.010264
O      15.32307      9.59973      7.14107        -0.570923     -0.436101     -0.631427
O       3.75704      9.56709     11.46971         0.542365      0.243885     -0.142517
O      15.33055      9.48689     11.60660        -0.924146      0.633528     -0.640298
O       7.67186      1.93859      2.70035         0.109891     -0.321311      0.073204
O       7.60228      1.81011     15.76094         0.339428      0.099017      0.033648
O       7.61755     13.42759      2.87107         0.099111     -0.378304     -0.501782
O       7.62449     13.45736     15.63791        -0.066189     -0.347126      0.260026
O       7.64666      1.98337      7.12097        -0.273857     -0.153459      0.127761
O       7.62061     13.37045      7.09924         0.114717     -0.104116      0.038444
O       7.61582      1.99447     11.47968         0.600708     -0.456815     -0.387718
O       7.69220     13.39184     11.48730        -1.018849      0.233166     -0.421260
O       7.59559      5.70679      2.73646         0.256268     -0.225556     -0.348286
O       7.63186      5.76738     15.77261         0.007060     -0.013759     -0.150002
O       7.63013      5.64176      7.04953         0.440208      0.417978      0.195417
O       7.61684      5.74088     11.48162         0.212701     -0.670376     -0.025853
O       7.54997      9.55829      2.72129         0.987425     -0.049304      0.039900
O       7.67598      9.56476     15.74911        -1.149328     -0.390157      0.101804
O       7.59099      9.70734      7.07643         0.103034     -0.404916     -0.149384
O       7.60240      9.51190     11.46418         0.757899      0.132660     -0.020078
O      11.51379      1.85809      2.63638         0.133926     -0.266089      0.229483
O      11.51576      1.89236     15.80846        -0.634730      0.155171     -0.276533
O      11.48072     13.46625      2.77546         0.288764      0.021545     -0.282862
O      11.43918     13.39207     15.87542        -0.376043     -0.380806     -0.727948
O      11.42002      1.91613      7.11054         1.564582     -0.348315     -0.250909
O      11.42287     13.34877      7.04284         0.880480      0.171016      0.342099
O      11.38510      1.82262     11.58197         1.102204      0.274337     -0.790658
O      11.40643     13.43088     11.42428         0.656586      0.243741      0.149769
O      11.47264      5.69237      2.74305         0.162138      0.029797     -0.034409
O      11.47535      5.75203     15.97458         0.413627     -0.507451     -0.656846
O      11.50223      5.80344      7.06514        -0.132854      0.496920     -0.435514
O      11.42027      5.67247     11.65450         0.478331     -0.039223     -0.526982
O      11.46176      9.58458      2.66495         0.585503     -0.077504      0.085179
O      11.48052      9.59797     15.85768        -0.102011     -0.373790     -0.228366
O      11.51439      9.48274      7.19436         0.399878      0.730907     -0.789009
O      11.37355      9.60552     11.48520         1.201635     -0.391162     -0.487134
O       1.89981      3.83921      2.80943         0.343679     -0.355181      0.220377
O       1.84494      3.89941     15.87653         0.289290     -1.909522     -0.302881
O       1.92859     15.35541      2.71378        -0.150275     -0.295962     -0.043732
O       1.91268     15.34106     15.87320        -0.201067      0.309867     -0.208156
O      13.32164      3.78365      2.74387         0.566194      0.070836     -0.099624
O      13.49213      3.79995     15.93014        -0.572383      0.216074     -0.292018
O      13.53346      0.02652      2.86549        -0.444820     -0.414088     -0.862688
O      13.35383     15.28765     15.69079         0.094536      0.213893      0.379022
O       1.81599      3.88196      7.11635         0.109376     -0.771373     -0.243971
O       1.81972      0.01828      7.28806        -0.175931     -0.162113     -0.744018
O      13.23433      3.94541      7.01203         0.735240     -1.361293     -0.532294
O      13.36804     15.31211      7.16425        -0.274969      0.560099     -0.720182
O       1.94337      3.76735     11.41788        -0.569649      0.449271      0.317066
O       1.97390     15.30045     11.38234        -0.706601      0.170340     -0.042436
O      13.37966      3.75074     11.62576        -0.066271     -0.269441     -0.719595
O      13.37549     15.34565     11.55279        -0.083204      0.380516     -0.489187
O       1.87321      7.67848      2.80037         0.187037     -0.595743     -0.960322
O       1.85560      7.71591     15.82942         0.232290     -0.803215      0.010580
O      13.38181      7.61298      2.67120         0.208880      0.732075     -0.004434
O      13.40638      7.67288     15.82388        -0.041277     -0.208893     -0.058851
O       1.80860      7.66858      7.09139        -0.160855     -0.125885     -0.073241
O      13.44450      7.64416      7.13117        -0.018381      0.483703     -0.764983
O       1.93529      7.71130     11.46201        -0.657745     -1.166813      0.393816
O      13.28816      7.63723     11.55605         0.309321      0.257962     -0.146496
O       1.86137     11.51971      2.52602         0.076335     -0.255860      0.411660
O       1.83992     11.44111     15.86860         0.207696      0.917614     -0.665617
O      13.34859     11.54527      2.72200         0.350150     -0.132194     -0.133564
O      13.41024     11.46301     15.80692        -0.488670     -0.147232     -0.076617
O       1.90888     11.43467      7.17640        -0.311186      0.768482     -0.490100
O      13.40478     11.46680      7.17823        -0.293231     -0.455432     -0.355555
O       1.82160     11.52719     11.51609        -0.097011     -0.639371     -0.384383
O      13.34276     11.49813     11.44926         0.191683     -0.338900     -0.196996
O       5.67039      3.80422      2.84722         0.199518     -0.072535     -0.642935
O       5.77222      3.78931     15.68903        -0.268908      0.515695     -0.048993
O       5.78418     15.33793      2.91060        -0.459711     -0.234092     -1.016824
O       5.57368     15.28408     15.76749         1.165941      0.085227     -0.364628
O       5.73795      3.88632      7.07695        -0.500708     -0.901821      0.201336
O       5.64975     15.34413      7.11465         0.515628      0.116936     -0.032798
O       5.67305      3.79330     11.33906        -0.066797      0.363015      0.148222
O       5.76831     15.32069     11.41396        -0.280033     -0.000420     -0.146044
O       5.70239      7.65070      2.71500         0.010955     -0.199395     -0.400472
O       5.71730      7.66603     15.87728         0.120994     -0.557956     -0.315296
O       5.71783      7.67862      7.04780         0.322951      0.163848     -0.179098
O       5.75981      7.64718     11.38759        -0.568682     -0.572287      0.394663
O       5.73646     11.47620      2.71849        -0.370637      0.370024      0.184071
O       5.78135     11.46840     15.68990        -0.180118      0.084287     -0.158397
O       5.63968     11.51908      7.12401        -0.168697     -0.386865     -0.137191
O       5.77917     11.47874     11.48864        -0.059606      0.269811     -0.330769
O       9.63033      3.70515      2.78740        -0.115087      0.797251     -0.309632
O       9.55835      3.81154     15.66898        -0.113329     -0.215552      0.429059
O       9.57079     15.28877      2.78138        -0.265673      0.716990     -0.326964
O       9.50951     15.27354     15.78425         0.514743      0.224649     -0.086797
O       9.68455      3.85127      7.10098        -0.673821      0.248059      0.111771
O       9.53607     15.33980      7.06585        -0.168825     -0.135012     -0.014604
O       9.55512      3.76719     11.68051        -0.149169      0.165769     -0.920987
O       9.45663     15.35105     11.42644         0.228667      0.723836     -0.107952
O       9.54775      7.62097      2.76132        -0.002690      0.031501     -0.137706
O       9.55671      7.61955     15.97215         0.023085      0.316907     -0.948497
O       9.47348      7.66453      7.17535         0.220359     -0.107732     -0.571596
O       9.48276      7.57320     11.49949         0.443837      0.710862     -0.209713
O       9.56521     11.44496      2.77485        -0.286318      0.207238     -0.226128
O       9.58525     11.42405     15.71403        -0.180352      1.364939      0.188489
O       9.62560     11.44868      7.10426        -0.301029      0.410424      0.353216
O       9.54150     11.50660     11.41620        -0.061908     -0.183289     -0.312813
