  # total energy = -7884.16475959 
CRSYTAL
PRIMVEC
    15.3600000000000000    0.0000000000000000    0.0000000000000000
     0.0000000000000000   15.3600000000000000    0.0000000000000000
     0.0000000000000000    0.0000000000000000    17.440000000000000
PRESSURE
0.594548 0.516711 -2.63182 0.289684 0.437829 -0.008308
PRIMCOORD
320 1
Pb       3.81202      3.75254      4.37680         0.274190      0.291193     -0.045960
Pb       3.81739      3.73400     17.40634         0.190175      0.388328     -0.140517
Pb       3.76478     15.29222      4.40240        -0.014457     -0.027708     -0.555429
Pb       3.70745     15.29851     17.32605         0.453993     -0.081080     -0.018059
Pb       0.06722      3.73458      4.33196        -0.403223      0.179497      0.100198
Pb       0.12229      3.85773      0.02588        -0.503013     -0.023197     -0.190715
Pb       0.05977     15.30264      4.28959        -0.198951     -0.121370     -0.130855
Pb      15.20924     15.26101     17.42070         0.113788     -0.044693      0.350828
Pb       3.72654      3.83622      8.75411         0.069005      0.429263     -0.354930
Pb       3.84824      0.02683      8.69265         0.050262     -0.070685     -0.106624
Pb      15.20675      3.97387      8.70134         0.444407     -0.150254      0.067710
Pb      15.19416      0.07644      8.76745         0.116172     -0.104953     -0.582986
Pb       3.79120      3.76192     12.94296        -0.038196     -0.148853      0.190768
Pb       3.70860     15.34384     12.89640         0.501452      0.349436      0.381277
Pb       0.04040      3.72486     13.11576        -0.091152      0.177901     -0.695889
Pb      15.34585     15.29223     13.02379        -0.129259      0.197523     -0.105613
Pb       3.83468      7.64397      4.31977         0.133944      0.071672      0.413469
Pb       3.73034      7.53524     17.36068         0.209968      0.565669      0.221210
Pb       0.10470      7.80134      4.30927        -0.417205     -0.485053      0.141263
Pb      15.19068      7.62263     17.38048         0.710807      0.264605      0.281651
Pb       3.85048      7.72203      8.72639        -0.199734     -0.261103     -0.810882
Pb      15.34082      7.66445      8.71002         0.469487     -0.019186     -0.408167
Pb       3.78932      7.55651     12.97371         0.301255      0.614217      0.281695
Pb      15.35881      7.58268     13.14116        -0.147845      0.196553     -0.409975
Pb       3.77432     11.54427      4.32104        -0.322840     -0.234231      0.030379
Pb       3.86485     11.50223     17.34576        -0.293948     -0.194625     -0.094378
Pb      15.30056     11.58265      4.30099         0.473866      0.115096      0.137297
Pb      15.22728     11.53718     17.30673         0.224543     -0.087584      0.406168
Pb       3.82549     11.52985      8.71745         0.493553     -0.174205     -0.099514
Pb      15.26489     11.42510      8.75113        -0.050306      0.245988     -0.574073
Pb       3.84565     11.43465     12.97190         0.508904      0.051015      0.583107
Pb       0.14091     11.52242     13.07302        -0.303272     -0.158032      0.103800
Pb       7.72669      3.66577      4.35256        -0.496928      0.606109     -0.049731
Pb       7.56465      3.81778      0.01629         0.227392     -0.209355     -0.316725
Pb       7.75729     15.29584      4.39439        -0.547471     -0.409633      0.000830
Pb       7.56177     15.33555     17.40010         0.142631      0.187510     -0.166257
Pb       7.65270      3.86758      8.65013        -0.067019     -0.089276      0.112791
Pb       7.64825     15.32294      8.65622        -0.057557      0.037607      0.200908
Pb       7.81354      3.96224     13.10084        -0.167022     -0.163449     -0.384621
Pb       7.55986      0.18030     12.97688         0.687634     -0.652256     -0.147678
Pb       7.71171      7.55202      4.31527        -0.174747      0.305508      0.109152
Pb       7.53052      7.72050     17.42205         0.313915     -0.012690     -0.436336
Pb       7.66656      7.71955      8.68741         0.215257      0.061927     -0.292480
Pb       7.60954      7.67588     12.96830         0.403667      0.059339      0.224185
Pb       7.70548     11.44309      4.37891        -0.153721      0.026583     -0.173973
Pb       7.58956     11.53642     17.40531         0.502988     -0.377737     -0.154658
Pb       7.63504     11.55427      8.67017         0.336581     -0.059292     -0.515874
Pb       7.71394     11.51154     12.96688         0.037715      0.309328      0.197865
Pb      11.43613      3.73603      4.26761         0.681237      0.639548      0.469923
Pb      11.63336      3.80439      0.06691        -0.106224     -0.106427     -0.495106
Pb      11.52383     15.22482      4.32969         1.001515      0.273860      0.838514
Pb      11.34963     15.25390      0.05308         0.684899      0.188464     -0.516095
Pb      11.39075      3.97240      8.68212         0.451052     -0.295580     -0.304644
Pb      11.46074     15.35490      8.67300         0.301643      0.179140     -0.047631
Pb      11.59424      3.71708     13.21116         0.046427      0.130861     -0.409587
Pb      11.54617     15.34122     12.99537        -0.469586     -0.203151      0.616078
Pb      11.46902      7.67141      4.22507         0.403148     -0.125884     -0.063468
Pb      11.49784      7.63335      0.04276        -0.251202      0.077112     -0.344997
Pb      11.52474      7.70012      8.68121        -0.092537     -0.141056     -0.063400
Pb      11.43271      7.61926     13.11104         0.157958     -0.058208      0.059847
Pb      11.55705     11.44328      4.27942         0.181610     -0.066523      0.031442
Pb      11.34487     11.45558     17.40237         0.330464      0.057039     -0.117404
Pb      11.58098     11.51818      8.67379        -0.363661      0.068595     -0.193210
Pb      11.54288     11.46618     13.02562        -0.234771      0.161267     -0.022127
Ti       1.92036      1.91696      2.27643        -0.231346     -0.622853      0.955383
Ti       1.90279      1.87061     15.43411        -0.157586      0.414364     -2.073499
Ti       1.91759     13.36525      2.23670        -1.619152      0.735063      0.098935
Ti       1.88755     13.42081     15.34734         0.123624      0.130222     -0.357228
Ti      13.45601      1.87084      2.34068        -0.164748     -0.303030     -0.910649
Ti      13.42581      1.86497     15.52321        -0.531430      0.372444      0.594212
Ti      13.34318     13.35059      2.29634         1.663355      0.694788     -0.914000
Ti      13.40948     13.46529     15.32078        -0.932145      0.322803     -0.274868
Ti       1.90223      1.89430      6.65585        -0.737104     -0.200944     -0.546019
Ti       1.93586     13.37968      6.76038        -0.862268      0.753764     -1.357473
Ti      13.49714      2.01716      6.68188        -0.866996     -0.596010     -0.911648
Ti      13.48217     13.46473      6.68253        -0.309763     -0.030331      0.043569
Ti       1.86935      1.90360     10.95820         0.293386      1.129343     -0.145596
Ti       1.96417     13.43336     10.93332        -0.437682      0.114335      1.060450
Ti      13.41648      1.87707     11.03669         0.161945      0.909801     -0.361683
Ti      13.50494     13.37018     11.07415        -1.091380      0.398062     -0.810807
Ti       1.93612      5.74215      2.34278        -0.693680      0.060560     -0.606672
Ti       1.88976      5.74170     15.35368        -0.034387      0.380067     -0.128561
Ti      13.48355      5.68392      2.30904         0.313912      1.231293      1.136484
Ti      13.45925      5.78931     15.34030        -0.878591     -1.132766     -0.625210
Ti       1.91727      5.69945      6.58780         0.447022      1.125156      0.602674
Ti      13.49927      5.82448      6.61171        -0.884336     -0.538648     -0.751975
Ti       1.95474      5.79070     11.03686        -1.440534     -1.060775     -1.162855
Ti      13.44521      5.77033     11.11157         0.323508     -0.489467     -0.332215
Ti       1.97806      9.56084      2.22423        -0.771396      1.262777     -0.396415
Ti       1.93459      9.58364     15.43995        -0.187499     -0.013953     -0.334526
Ti      13.55684      9.52016      2.30689        -1.471398      0.589970      0.020005
Ti      13.39492      9.59051     15.37318         0.457539      0.233024     -0.565369
Ti       1.94093      9.62864      6.78373         0.311436     -0.848439     -0.056954
Ti      13.47424      9.55834      6.63867         0.197053      0.998105     -1.392525
Ti       1.95156      9.62180     11.03252         0.091018     -0.357010     -1.738462
Ti      13.52222      9.56940     11.12194        -0.814920     -1.013115     -0.236027
Ti       5.74319      1.82407      2.40343        -0.042798      0.562736      0.808201
Ti       5.76724      1.89923     15.26310        -0.116728     -0.274746      1.274764
Ti       5.74134     13.36278      2.31713        -0.053898      0.580348      1.400874
Ti       5.74265     13.42667     15.28069        -0.040758      0.236813     -1.915788
Ti       5.72587      1.96111      6.63749        -0.199206      0.224323     -0.062438
Ti       5.71556     13.47787      6.63773         0.383587     -0.082875     -0.072173
Ti       5.77127      1.97754     10.98674         0.017406     -0.433079      0.820248
Ti       5.78517     13.42003     11.04927         0.332000      0.672126     -1.230218
Ti       5.74627      5.69031      2.32922        -0.344243     -0.422116     -0.263306
Ti       5.71911      5.74614     15.42095         0.401387     -0.025541     -0.926342
Ti       5.76945      5.76929      6.72580        -0.524582      0.415729     -0.174921
Ti       5.79720      5.73767     11.02914         0.044779     -0.818880     -1.554301
Ti       5.75627      9.51183      2.36325         0.235517      0.561865     -0.384684
Ti       5.73351      9.66722     15.33593         0.413491     -0.836031     -1.402122
Ti       5.80730      9.61709      6.67603         0.033846     -0.443200     -0.701864
Ti       5.81484      9.58908     11.03423        -0.427465      0.055018     -0.310236
Ti       9.61071      1.86368      2.39674         0.265884     -0.169590     -0.732097
Ti       9.61541      1.98339     15.45943         0.478585     -0.479212     -0.971546
Ti       9.57531     13.46308      2.30978        -0.087452     -0.583882      0.196721
Ti       9.47649     13.50011     15.33624         1.339262     -0.323935     -1.212797
Ti       9.59429      1.90422      6.66792         0.675851      0.181020      0.677770
Ti       9.65505     13.44218      6.67579        -0.463842     -0.596021     -0.361281
Ti       9.65791      1.98345     11.06012        -1.245922     -1.059115     -0.919642
Ti       9.60916     13.46512     11.07247         0.293979      0.347707      0.519905
Ti       9.58120      5.71416      2.22276         0.074030      0.654352     -0.377222
Ti       9.57771      5.78139     15.51658         0.343751      0.019620     -0.130019
Ti       9.60209      5.76956      6.62124        -0.119504      0.236824      0.240180
Ti       9.64104      5.78009     10.96138         0.188119      0.201153     -0.145457
Ti       9.59391      9.65875      2.34262         0.587490     -0.381234     -1.697053
Ti       9.55277      9.57799     15.36319         0.057773      0.140058      1.028893
Ti       9.73250      9.55550      6.61091        -1.251083      0.502714      0.769101
Ti       9.67597      9.57684     10.98402         0.248396      0.433907     -1.230798
O       1.85341      1.99224      0.52469         0.517020     -0.060499     -1.145971
O       2.07871      1.89833     13.52924        -0.954911      0.027104      2.119737
O       1.82996     13.46936      0.45605         0.471125     -0.170835     -0.045091
O       1.85328     13.48962     13.54473         0.003973     -0.021744      0.673106
O      13.29702      1.96933      0.52312         0.723062     -0.130846      1.221680
O      13.39330      1.86847     13.78836        -0.099810      0.170732     -1.588545
O      13.50141     13.45092      0.49111        -0.152263     -0.331596      0.687052
O      13.50238     13.54485     13.50923         0.141669     -0.192563      0.692058
O       1.81903      1.89684      4.80622         0.305690     -0.046850      1.341107
O       1.89397     13.34036      4.90787         0.623311      0.237311      1.089508
O      13.60571      1.95903      4.87434        -0.459325     -0.013403      0.793566
O      13.38196     13.44864      4.91213         0.039551     -0.018405     -0.110161
O       1.93277      2.03321      9.18734        -0.119793     -0.325675      0.008145
O       1.89097     13.34928      9.22140        -0.071382      0.076741     -0.683555
O      13.45846      1.93881      9.25183        -0.012920      0.143673      0.778324
O      13.44543     13.41176      9.24477         0.246569     -0.148574      1.216138
O       1.98295      5.69746      0.53165        -0.086206      0.133048      0.627822
O       1.83462      5.68154     13.55879         0.427107      0.418018      0.319139
O      13.46285      5.82565      0.55888        -0.073375     -0.387145     -0.714276
O      13.43078      5.91109     13.52326         0.183502     -0.822983      1.261582
O       1.89491      5.76227      4.81383         0.197257      0.185876     -0.130624
O      13.38802      5.82124      4.85643         0.104921     -0.001205      0.257637
O       1.95019      5.61938      9.22004        -0.244133      0.591704      1.240198
O      13.49001      5.68464      9.28082        -0.085581      0.400376      0.624628
O       2.06573      9.66964      0.46003        -0.076397     -0.062612      0.226067
O       1.96482      9.62433     13.64318         0.101235     -0.075015      0.283308
O      13.55962      9.58399      0.52809        -0.303434     -0.068531     -0.581484
O      13.41625      9.59253     13.59257         0.154849     -0.104154      0.607656
O       1.94978      9.69444      5.02921        -0.006389     -0.076392     -0.527007
O      13.50588      9.62749      4.81803        -0.290325     -0.218606      1.101770
O       1.97951      9.57130      9.11913        -0.318513      0.266795      2.391469
O      13.43625      9.57111      9.31454         0.261638     -0.062110      0.473212
O       5.81258      1.83089      0.65532        -0.166873      0.028218     -0.376028
O       5.75847      1.87954     13.52695        -0.054616      0.348189     -0.185769
O       5.78560     13.41303      0.58095        -0.163506      0.119468     -0.322756
O       5.85772     13.36244     13.45747        -0.365304      0.203261      0.825814
O       5.70426      2.03834      4.84128         0.262877     -0.622316      0.904997
O       5.66584     13.52924      4.84509        -0.047162     -0.283103      0.300837
O       5.66688      1.92319      9.26406         0.045925      0.158682     -1.193121
O       5.77139     13.44540      9.19577         0.145167     -0.107848      1.421081
O       5.69049      5.76763      0.53106         0.116391     -0.259951      0.150919
O       5.77331      5.65391     13.62177        -0.006415      0.312033      0.616003
O       5.73642      5.82685      4.95431         0.042232      0.125308     -0.114484
O       5.80242      5.65008      9.21620        -0.276200      0.482262      1.106901
O       5.84278      9.63589      0.57017        -0.256638     -0.275895      0.710138
O       5.76202      9.66570     13.51082        -0.023016     -0.141265      0.741248
O       5.78951      9.45032      4.86243        -0.056991      0.374993      0.805818
O       5.83006      9.67443      9.25932        -0.021668     -0.274958      0.224586
O       9.49179      1.86728      0.63541         0.222803     -0.187078      0.137718
O       9.66679      1.93057     13.61220        -0.135438      0.491005      1.510000
O       9.56310     13.51673      0.53678        -0.117638     -0.368053     -0.011487
O       9.50599     13.52745     13.50474         0.016364     -0.397317      1.903452
O       9.61720      1.89551      4.87659        -0.131424      0.038848      0.592950
O       9.60180     13.54470      4.87976         0.147328     -0.449670      0.490611
O       9.52061      1.94861      9.26299         0.649147      0.138853      0.538726
O       9.59976     13.44889      9.32823         0.005718      0.072263     -1.023036
O       9.63652      5.87000      0.40565        -0.473434     -0.376677      1.705609
O       9.52758      5.79018     13.72663        -0.173245     -0.209018     -0.265716
O       9.65167      5.71686      4.85707        -0.264401      0.046176     -0.459847
O       9.67192      5.80189      9.17806        -0.226300     -0.201413      0.794151
O       9.63554      9.70637      0.45562        -0.295250     -0.367155      1.932895
O       9.63320      9.62626     13.60964        -0.283890     -0.154794     -0.160083
O       9.69343      9.60531      4.84986        -0.160562      0.316832     -0.691197
O       9.76782      9.64063      9.13600        -0.236881     -0.365675      1.740771
O       3.80085      2.02797      2.80491         0.197028     -0.390968     -0.670992
O       3.84019      1.87926     15.72698        -0.466759      0.141376      0.480236
O       3.74521     13.32599      2.62605         1.788738      0.150538      0.192852
O       3.86463     13.54883     15.59101        -0.952465     -0.284534      0.711924
O       0.00981      1.84926      2.67003        -0.145710      0.002707     -0.023942
O      15.31186      1.98104     15.75214         1.173410     -0.165330      0.303846
O      15.35551     13.48050      2.79767        -0.095398     -0.010411     -0.444611
O      15.35126     13.50533     15.80109         0.325941     -0.159207     -0.460378
O       3.78314      2.00969      7.00467         0.208865     -0.425649     -0.016385
O       3.81446     13.48095      7.12691         0.466707     -0.186599     -0.082979
O      15.30999      1.91286      7.08665         1.026586      0.035263      0.274338
O      15.32647     13.33929      6.93025         0.628014      0.350573      0.707593
O       3.85102      1.89260     11.43660        -0.290140      0.040464     -0.360306
O       3.82546     13.58073     11.26512         0.311864     -0.482824      0.196682
O      15.32323      1.91260     11.45607         0.187613      0.440111      0.005466
O       0.00361     13.35523     11.44526         0.647772      0.037088     -0.206231
O       3.82051      5.58702      2.69403         0.126736      0.644248      0.261942
O       3.76864      5.81483     15.79958         0.528790     -0.535873     -0.327412
O       0.01761      5.99191      2.63151        -0.235734     -0.883640      0.121244
O       0.03497      5.72963     15.78272        -1.236490      0.302145     -0.072286
O       3.80732      5.78849      7.13145         0.334308      0.024917     -0.277058
O       0.00795      5.78836      7.03574        -0.273535      0.262366      0.163187
O       3.79304      5.76349     11.44526         0.784389      0.100720     -0.054919
O       0.04075      5.67779     11.47132         0.123035      0.214594     -0.044258
O       3.79329      9.64954      2.74555         1.140077     -0.117251     -0.083373
O       3.93525      9.56622     15.78203        -1.282304      0.350344      0.280681
O      15.34860      9.49011      2.65833         1.267862      0.490234      0.135590
O       0.04862      9.52129     15.81865        -0.840039      0.809751     -0.353120
O       3.87559      9.53302      7.08207         0.568062      0.390583      0.147579
O      15.35757      9.60883      7.06721        -0.177300      0.056701      0.438846
O       3.84003      9.58307     11.41107         0.035627     -0.379260      0.029358
O       0.06673      9.68791     11.48561         0.155987     -0.094452     -0.346208
O       7.76138      1.73442      2.81424        -0.607919      0.134447      0.053221
O       7.66486      1.98563     15.72187        -0.034362     -0.270250      0.175569
O       7.71729     13.54273      2.73413        -0.659074     -0.061298     -0.030718
O       7.61221     13.34925     15.78144         0.837543      0.333993      0.055822
O       7.59184      1.91618      7.18510         0.693171     -0.021921     -0.947661
O       7.60787     13.47332      7.00985         0.983015      0.054018      0.148040
O       7.69035      1.97901     11.38249         0.444414      0.069751      0.358864
O       7.69710     13.46218     11.41741        -0.296711     -0.473148     -0.296663
O       7.63333      5.79771      2.61028         0.988648     -0.196512      0.087875
O       7.61509      5.63772     15.81110        -0.123961      0.396003      0.271184
O       7.66987      5.85826      7.15147         0.361673     -0.375901     -0.361032
O       7.69961      5.75256     11.35395         0.315536     -0.051420      0.466502
O       7.69339      9.56061      2.77264        -0.523952     -0.013102     -0.096679
O       7.61203      9.72862     15.75884         0.662451     -0.664245      0.072077
O       7.76181      9.55689      7.04688        -0.366385      0.674359     -0.000893
O       7.69603      9.68061     11.42068         0.350515     -0.531486     -0.239929
O      11.54440      1.96785      2.77266         0.154779      0.124116     -0.120513
O      11.50547      1.80063     15.96130        -1.002583      0.600923     -0.311044
O      11.50916     13.28650      2.64528         0.157946     -0.025874      0.190544
O      11.49153     13.46972     15.68909        -0.266217     -0.130433      0.047313
O      11.55775      1.88355      7.07912        -1.125114      0.660079     -0.242525
O      11.49685     13.49331      7.08113         0.354531      0.028985      0.152398
O      11.52571      1.93325     11.58333         0.885926     -0.000274     -0.597459
O      11.57132     13.47762     11.55445         0.520808     -0.487855     -0.586620
O      11.49059      5.64119      2.53401        -0.542550      0.238097      0.406753
O      11.46897      5.88241     15.76699         1.043705     -0.360058      0.086242
O      11.44028      5.74733      7.14288         1.058465      0.129885     -0.332643
O      11.50758      5.90781     11.35434         0.069781     -0.274208      0.151314
O      11.53592      9.70927      2.64083        -0.481986     -0.382186      0.209801
O      11.55609      9.54487     15.76683         0.022747      0.286311      0.094192
O      11.57363      9.63516      7.00892         0.329027     -0.237639      0.170803
O      11.52042      9.35827     11.53463         0.447089      1.181368     -0.571224
O       1.77105      3.86110      2.63867         0.092021     -0.264152      0.134999
O       1.78506      3.91411     15.77613         1.116267     -1.510135      0.063737
O       1.98861     15.34686      2.62059         0.077416      0.158949      0.242291
O       1.87996      0.02718     15.79793        -0.007482      0.009083     -0.062913
O      13.54628      3.84096      2.75011        -0.126191     -0.241544     -0.338894
O      13.30054      3.84920     15.80019         0.218373      0.648171     -0.089764
O      13.38914     15.29693      2.63993        -0.132255      0.620104      0.251212
O      13.41569     15.34242     15.87271         0.291325     -0.379758     -0.068559
O       1.84263      3.85189      6.88465         0.130156     -0.798556      0.342935
O       1.90448     15.31528      7.11597        -0.072327      0.824381     -0.188495
O      13.45299      3.94436      7.02011        -0.130095     -0.811068      0.197429
O      13.41879      0.04084      7.21294         0.322899     -0.437782     -0.418693
O       1.96561      3.80045     11.33462        -0.028937      0.379739      0.554707
O       1.86784      0.04730     11.25848        -0.056026     -1.289277      0.330019
O      13.41084      3.87204     11.55162        -0.105722     -0.616591      0.008144
O      13.56151      0.00287     11.34802        -0.436199     -0.307977      0.119723
O       1.85260      7.76411      2.69144         1.335509     -1.097254      0.050345
O       1.85107      7.73738     15.92400         0.674058     -1.149891     -0.724060
O      13.37405      7.68524      2.70617        -0.394144     -0.423720     -0.021208
O      13.46690      7.61198     15.68290         0.178920      1.179954      0.563450
O       1.92725      7.65981      7.09683        -0.219037      0.170249      0.034758
O      13.40479      7.70413      7.06707         0.176582     -0.204028      0.220098
O       1.85536      7.74214     11.40860         0.363343     -0.665534     -0.006953
O      13.58853      7.63928     11.54329         0.056093      0.557746     -0.468635
O       1.78152     11.51964      2.68103         0.432871     -0.739354     -0.063986
O       1.99385     11.55578     15.74928        -0.175448      0.019204     -0.076296
O      13.53330     11.50365      2.69126        -0.150148     -0.118086      0.034836
O      13.51465     11.60768     15.65000        -0.188354     -1.400255      0.179048
O       2.01634     11.55583      7.24263        -0.459527     -0.691095     -0.414166
O      13.43935     11.52381      7.07516        -0.151884     -0.324210      0.200855
O       2.06378     11.52760     11.51671        -0.724495      0.196081     -0.780548
O      13.47581     11.40388     11.44490        -0.547814      1.474793      0.097341
O       5.85266      3.77864      2.80226         0.127189      0.257864     -0.359002
O       5.69763      3.75847     15.89228        -0.143135      0.446308     -0.348925
O       5.73570      0.00087      2.87752        -0.540811     -0.802387     -0.537745
O       5.76058     15.29596     15.73639         0.419450      1.132865      0.105863
O       5.73564      3.89153      6.96627         0.311382     -0.758916      0.376794
O       5.70508      0.01170      7.10743        -0.198660      0.762669     -0.352218
O       5.77759      3.87169     11.35321        -0.366549     -0.086730      0.485243
O       5.83087      0.04942     11.36491        -0.216627     -0.766198      0.071591
O       5.70359      7.57235      2.76053        -0.154835      1.142978     -0.318242
O       5.74151      7.69097     15.69019         0.478496     -0.527939      0.295649
O       5.86755      7.74471      7.25845        -0.898901     -0.321564     -0.487159
O       5.75199      7.61578     11.41255         0.040095      0.751624      0.149516
O       5.83787     11.47626      2.72612        -0.127012      0.418442      0.047911
O       5.73762     11.57004     15.72805        -0.423902     -0.404287      0.396708
O       5.78030     11.56127      6.94423        -0.147219     -0.674640      0.272075
O       5.69494     11.47031     11.30780         0.097791      1.065267      0.373244
O       9.50374      3.77900      2.76660         0.154296      0.719517     -0.509391
O       9.66653      3.84854     15.94492        -0.181257     -0.484677     -0.445019
O       9.94814     15.26326      2.79334        -1.851055      1.011601     -0.950940
O       9.57480     15.34512     15.87043        -0.689997     -0.003836     -0.335358
O       9.51004      3.87922      7.05830         0.204986     -1.127059     -0.103913
O       9.63007      0.01380      7.05929        -0.541241      0.423171      0.148032
O       9.69929      3.84727     11.44614        -0.161365      1.038783      0.076994
O       9.69533      0.01773     11.41437        -0.368583      0.408130     -0.059068
O       9.56800      7.72200      2.73360         0.464008     -0.987432     -0.499601
O       9.62324      7.70780     15.85781        -0.945938      0.362382     -0.135603
O       9.64406      7.68465      6.89827         0.166273      0.088472      0.463534
O       9.57957      7.70718     11.38245        -0.730687     -0.573140      0.142529
O       9.58423     11.53822      2.69625        -0.550436      0.012920      0.289983
O       9.65399     11.45888     15.84938        -0.459023      1.071093     -0.613372
O       9.69057     11.55561      7.07179        -0.495887      0.026608     -0.259152
O       9.74575     11.50949     11.35892        -0.235758     -0.476199      0.334577
