  # total energy = -7878.86461052 
CRSYTAL
PRIMVEC
    15.6000000000000000    0.0000000000000000    0.0000000000000000
     0.0000000000000000   15.6000000000000000    0.0000000000000000
     0.0000000000000000    0.0000000000000000    17.640000000000000
PRESSURE
-2.415 -2.17327 8.01151 0.072012 -0.224818 -0.014005
PRIMCOORD
320 1
Pb       3.77497      3.75918      4.37591         0.324703      0.432716     -0.291107
Pb       3.88814      3.91723     17.57355        -0.107576     -0.257137      0.113377
Pb       3.88401     15.55971      4.30484        -0.186483     -0.389777      0.042418
Pb       3.81867     15.55062     17.51356         0.005438      0.518572      0.402638
Pb       0.04881      3.88031      4.38222        -0.372597      0.028172     -0.517349
Pb      15.58750      3.94599     17.62341         0.001350     -0.002497     -0.326416
Pb      15.53717     15.53358      4.29058         0.043968      0.227340     -0.031092
Pb      15.48659      0.03917     17.52959         0.207589     -0.328247      0.349586
Pb       3.83147      3.94164      8.77404        -0.123533     -0.151946     -0.093248
Pb       3.82810      0.05118      8.70174         0.160490     -0.519677      0.425138
Pb      15.57281      3.91392      8.67132        -0.321801      0.026409      0.461497
Pb       0.01262     15.59424      8.74233        -0.049020     -0.008449     -0.017238
Pb       3.91456      3.65433     13.21809        -0.027730      1.021331     -0.236138
Pb       3.81325     15.53011     13.16074         0.270253      0.013714     -0.640314
Pb      15.58005      3.77247     13.15118         0.115115      0.670623      0.174799
Pb      15.58911      0.11663     13.12317        -0.054593     -0.644058      0.008948
Pb       3.88273      7.82938      4.39360         0.075849     -0.590436     -0.321793
Pb       3.95850      7.81519     17.56846        -0.581732     -0.196646      0.223375
Pb       0.02520      7.98376      4.40808        -0.183132     -0.975698     -0.381406
Pb       0.03614      7.85547     17.52410        -0.222466     -0.244514     -0.057607
Pb       3.90109      7.89992      8.82657         0.371768     -0.466181     -0.281560
Pb      15.56791      7.80914      8.82112        -0.227558     -0.175921      0.111416
Pb       3.89653      7.79973     13.10788         0.295453     -0.517753      0.120587
Pb       0.06061      7.88968     13.15897        -0.229032     -0.392782      0.536229
Pb       3.90952     11.63035      4.35205        -0.488518      0.791934      0.350367
Pb       3.93735     11.63296     17.54351        -0.352134     -0.014900      0.260148
Pb      15.50049     11.52126      4.25485         0.660607      1.174330      0.938799
Pb      15.55260     11.62794     17.48693        -0.088219      0.282262      0.400217
Pb       3.84037     11.56783      8.71590         0.037703      1.039996      0.235360
Pb      15.52638     11.75594      8.79233         0.221594     -0.185512     -0.083948
Pb       3.84980     11.74858     13.14181         0.053879     -0.003195     -0.273268
Pb      15.52101     11.62122     13.14990        -0.115153      0.214362     -0.240281
Pb       7.86861      3.69855      4.47095        -0.427584      0.666539     -0.366915
Pb       7.78657      3.82983     17.53881         0.042239      0.295523      0.121140
Pb       7.71245     15.47965      4.29453         0.229048      0.191655      0.654759
Pb       7.76722     15.57780     17.62774        -0.121559      0.226975     -0.519169
Pb       7.70992      3.90391      8.72322         0.014338     -0.009069      0.336623
Pb       7.81617     15.58482      8.67302         0.022243     -0.125971      0.403693
Pb       8.01395      3.95221     13.07382        -0.525047     -0.098133      0.680825
Pb       7.79365      0.03187     13.22196        -0.180716     -0.114978     -0.518255
Pb       7.92940      7.77267      4.36279        -0.730002     -0.386904     -0.498167
Pb       7.81374      7.90743     17.62201        -0.188672     -0.929822      0.009579
Pb       7.75847      7.82037      8.72649        -0.661118      0.076336     -0.199140
Pb       7.77405      7.92446     13.05489        -0.359215     -0.675509      1.005833
Pb       7.85248     11.71531      4.38172        -0.103254     -0.120559      0.356823
Pb       7.78015     11.70325      0.01584         0.146274      0.115417     -0.345512
Pb       7.84018     11.70372      8.92757        -0.184194      0.102953     -0.719299
Pb       7.79470     11.76200     13.18059        -0.073894     -0.104789     -0.322792
Pb      11.64517      3.88045      4.42404         0.483463      0.176555     -0.429887
Pb      11.87222      3.83646     17.57818        -1.419529      0.214105      0.370331
Pb      11.53051     15.44132      4.39669         0.549107      0.048385      0.099557
Pb      11.49845     15.49465     17.59810         0.738244      0.389887      0.068503
Pb      11.54899      3.90245      8.75169         0.519606      0.059308      0.343422
Pb      11.80549      0.06439      8.68545        -0.497487     -0.483687     -0.028129
Pb      11.79302      3.91002     13.18795        -0.579524      0.442874     -0.072520
Pb      11.69044     15.56735     13.14921        -0.060517     -0.217529      0.190272
Pb      11.76074      7.70872      4.25784         0.081986      0.019697     -0.068367
Pb      11.73136      7.72735     17.49728        -0.411133     -0.326742      0.146859
Pb      11.58363      7.79047      8.67786         0.555287      0.052391      0.308004
Pb      11.75501      7.73585     13.20094        -0.466495     -0.296706      0.469529
Pb      11.69506     11.66436      4.22864        -0.008560     -0.058194      0.578716
Pb      11.81768     11.55503     17.43028        -0.348789      0.792024      1.064158
Pb      11.72804     11.60473      8.58121        -0.099194      0.364117      0.882970
Pb      11.61290     11.61309     12.99206         0.354150      0.374831      0.951554
Ti       1.93217      1.94264      2.38175        -0.463774     -0.483186      2.899351
Ti       1.84875      2.00616     15.64573         0.414066     -0.151246      2.975313
Ti       1.89648     13.63352      2.34253         0.280312     -0.271654      3.003099
Ti       1.95475     13.64356     15.63090        -0.884602      0.024039      3.331381
Ti      13.60891      1.91045      2.44259         0.549117     -0.510722      0.508635
Ti      13.51701      1.89316     15.72665         0.276394      0.194283      1.850985
Ti      13.67405     13.58374      2.38568        -0.100334      0.378329      1.701446
Ti      13.64578     13.64543     15.56614        -0.242220     -0.488636      1.753435
Ti       1.88913      1.98478      6.80163        -0.064965     -0.298502      1.922465
Ti       1.89036     13.68603      6.82738         0.782641     -0.467403      1.853377
Ti      13.61280      1.94261      6.79526         0.202989      0.023028      2.019173
Ti      13.66707     13.62971      6.73780        -0.678294      0.077175      1.664323
Ti       1.97657      1.94039     11.14508        -0.412368     -0.472760      0.355070
Ti       1.87487     13.58413     11.16377         0.520967      0.977262      1.044964
Ti      13.56823      1.94853     11.19404         0.329095     -0.105968      1.751376
Ti      13.60591     13.63092     11.20294         0.295861     -0.224928      2.243652
Ti       1.89818      5.89252      2.28402        -0.114509     -0.161949      3.803466
Ti       1.87642      5.88021     15.60567        -0.001849     -0.061777      3.326222
Ti      13.66318      5.69865      2.28104        -0.325499      0.907571      2.602731
Ti      13.56143      5.79636     15.65417         0.241259      0.651802      0.847884
Ti       1.90502      5.95098      6.86864        -0.222103     -0.685563      1.143923
Ti      13.58568      5.85769      6.88982         0.353130     -0.013373      2.862070
Ti       1.94305      5.81137     11.24297         0.335075     -0.225691      1.787399
Ti      13.69348      5.88230     11.30997        -0.142461     -0.679409     -0.062472
Ti       2.00140      9.73928      2.36621        -0.826158      0.087391      1.951680
Ti       1.93096      9.79218     15.58537        -0.187034     -0.787788      1.314340
Ti      13.61655      9.65619      2.41326        -0.040914     -0.007271      1.642077
Ti      13.58681      9.70055     15.60208         0.678801     -0.321035      1.595396
Ti       1.90479      9.73412      6.87005         0.023236      0.482508      1.803592
Ti      13.66998      9.72312      6.81558        -0.401019     -0.412552     -0.045576
Ti       1.94898      9.70438     11.19412        -0.841337      0.618337      2.366726
Ti      13.59822      9.67025     11.20941         0.384915      0.744961      1.446711
Ti       5.87596      1.93332      2.47856        -0.424825      0.085060      1.354921
Ti       5.77071      1.99929     15.55721         0.057057     -0.397779      1.205997
Ti       5.89277     13.53634      2.39410        -1.255288      0.910522      2.299139
Ti       5.81743     13.69593     15.65806         0.429871      0.132967      1.609917
Ti       5.80877      1.88138      6.88261        -0.143032      0.052174      0.997641
Ti       5.85898     13.60471      6.88161        -0.155410      0.002167      2.070588
Ti       5.89292      1.99441     11.23831        -0.177771     -0.815510      2.773042
Ti       5.82866     13.68171     11.23365        -0.155161      0.271410      0.912582
Ti       5.73389      5.74303      2.47325         0.901511      0.824621      2.371734
Ti       5.79200      5.84987     15.72054         0.506366      0.089122      1.216195
Ti       5.69752      5.77592      6.78416         0.311979      0.971469      2.440545
Ti       5.86969      5.79964     11.17969        -1.296853      0.589689      1.022981
Ti       5.82634      9.73991      2.50653         0.546830     -1.113063      1.098937
Ti       5.86840      9.78474     15.67938        -0.932306     -0.815692      0.808782
Ti       5.84368      9.82158      6.77207         0.203415     -0.869510      1.907262
Ti       5.78504      9.80724     11.22371         0.503988     -0.524439      3.030349
Ti       9.79002      1.92755      2.48087        -0.128385     -0.210641      1.308791
Ti       9.65053      1.90947     15.55864         0.196806      0.766362      3.132757
Ti       9.74241     13.61647      2.32605         0.430637     -0.334719      2.706732
Ti       9.75432     13.61506     15.65089        -0.150933      0.075781      1.195456
Ti       9.72145      2.01154      6.86091        -0.065604     -1.228116      2.188329
Ti       9.79180     13.61468      6.86703        -0.524801      0.533353      1.233938
Ti       9.75289      1.82797     11.18683        -0.509561      1.013290      1.521571
Ti       9.71312     13.59670     11.16173        -0.324350      0.332257      2.170408
Ti       9.66934      5.73460      2.40532        -0.015740      0.571494      2.005382
Ti       9.62883      5.80594     15.65563         0.658905     -0.134936     -0.217540
Ti       9.62611      5.90263      6.84978         0.212975     -0.366262      1.906395
Ti       9.68299      5.90792     11.19329         0.768733     -1.078020      1.572278
Ti       9.69172      9.71964      2.41736         0.452022     -0.055016      1.118251
Ti       9.69230      9.75239     15.68245         0.164348     -0.548682      1.709213
Ti       9.72677      9.77038      6.78069        -0.346607      0.323529      3.127023
Ti       9.72969      9.67876     11.22231        -0.267921      0.853380      1.832683
O       2.03595      1.97771      0.74128        -0.224598     -0.193146     -3.496902
O       1.78281      2.02149     13.99929         0.076011      0.015160     -3.601124
O       1.88812     13.72708      0.69002         0.037929     -0.126404     -2.760081
O       2.06364     13.62620     14.00056         0.097040     -0.118743     -3.656866
O      13.53286      2.01253      0.74326         0.203365      0.114250     -2.007953
O      13.58907      1.79646     14.07945        -0.128992     -0.029994     -3.162542
O      13.71245     13.40496      0.72892        -0.140144      0.011453     -2.351071
O      13.59273     13.61745     13.89059         0.012100      0.259207     -2.058665
O       1.76150      1.81783      5.13839         0.334053      0.494671     -2.072397
O       2.00838     13.65099      5.17743        -0.135087     -0.018980     -2.174674
O      13.77385      1.94269      5.15102        -0.388680      0.207527     -3.072765
O      13.62662     13.71761      5.07385        -0.175004     -0.350930     -2.566751
O       1.99005      1.83353      9.42181        -0.375603      0.427324     -0.748827
O       1.79744     13.72068      9.48192        -0.015238      0.046261     -2.220198
O      13.49386      1.87168      9.51788         0.165315      0.038538     -1.722325
O      13.67171     13.60188      9.53164         0.035172      0.184040     -1.579402
O       1.87670      5.92394      0.64560        -0.138643     -0.213513     -3.342927
O       1.94981      5.75136     13.97201         0.138588      0.027734     -3.265386
O      13.49213      5.68961      0.59819         0.377795      0.132448     -2.038904
O      13.47532      5.82938     13.97167         0.085421     -0.046772     -2.768915
O       1.87404      5.98933      5.18877         0.101999     -0.126983     -1.880021
O      13.62032      5.75874      5.26277        -0.043365      0.274061     -3.590867
O       1.91038      5.88367      9.57292         0.006501     -0.216658     -2.229552
O      13.73833      5.88612      9.60074        -0.220041      0.056769     -0.706255
O       1.85745      9.75887      0.70817         0.112911      0.044778     -2.360021
O       1.83402      9.80020     13.88675         0.211878      0.125553     -1.734673
O      13.57014      9.74348      0.74286         0.152835      0.106922     -2.799016
O      13.63323      9.73937     13.94163         0.011545     -0.110921     -2.786097
O       1.98370      9.70610      5.19500        -0.123575     -0.167772     -2.344456
O      13.63315      9.57706      5.08313         0.299879      0.310734     -0.670582
O       1.94883      9.69485      9.53841         0.037635     -0.083309     -2.900291
O      13.62275      9.70766      9.53574        -0.098085     -0.119384     -1.875658
O       5.80291      2.03949      0.81712         0.209160     -0.200871     -2.232078
O       5.73406      1.98534     13.86577         0.102062     -0.192373     -2.035498
O       5.91370     13.60055      0.73112         0.009414     -0.153235     -2.828671
O       5.73929     13.73586     13.98764         0.061808     -0.221891     -2.054599
O       5.77767      1.82130      5.20509         0.317637      0.233833     -2.131725
O       5.87655     13.60066      5.21560         0.061015      0.075431     -2.729355
O       5.91324      1.89806      9.60689        -0.163761      0.140176     -4.081317
O       5.84322     13.60044      9.56771         0.156626     -0.060577     -2.554593
O       5.85292      5.70941      0.82491         0.052317     -0.052988     -3.384799
O       5.76074      5.94769     14.07208        -0.080296      0.012240     -2.580587
O       5.52287      5.78839      5.13316         0.225802      0.034616     -2.140263
O       5.82269      5.97820      9.48563         0.083655     -0.467591     -1.496079
O       5.87845      9.77898      0.82523        -0.128660      0.202415     -2.458231
O       5.76681      9.68161     14.00779         0.186393      0.073265     -2.118452
O       5.81706      9.84775      5.09158        -0.089312     -0.084026     -2.451439
O       5.76194      9.72805      9.58881         0.063126      0.191596     -3.595679
O       9.63988      1.93961      0.82058         0.015410     -0.266112     -2.215032
O       9.70850      1.85918     13.91232         0.130096     -0.104817     -3.447511
O       9.63443     13.76961      0.67131         0.005159     -0.067575     -2.482863
O       9.67846     13.66211     13.97374         0.051616     -0.089298     -2.180563
O       9.78703      2.02399      5.19529        -0.027058      0.118265     -2.986461
O       9.75967     13.58097      5.17837         0.178956      0.090643     -2.171636
O       9.76020      1.92955      9.51076         0.123796     -0.181786     -1.861315
O       9.60134     13.54564      9.50815         0.204482      0.038286     -2.802014
O       9.59111      5.74498      0.75276        -0.028387      0.047611     -2.575226
O       9.60793      5.81331     13.93018         0.169581     -0.073394     -1.460111
O       9.76351      5.83595      5.19782         0.008701     -0.094510     -2.707238
O       9.60371      5.96956      9.49894         0.096391      0.160932     -1.432837
O       9.63763      9.70939      0.73960         0.018111     -0.099081     -2.373529
O       9.68671      9.75790     14.03112        -0.052033      0.185898     -2.607400
O       9.74650      9.80612      5.14773        -0.172441     -0.118033     -3.883751
O       9.61883      9.70744      9.56833         0.221395     -0.126445     -3.066445
O       3.86361      1.88903      2.84551         0.279837     -0.040342      0.519944
O       3.81757      2.03716     15.89408         0.151217      0.040067      0.616779
O       3.92161     13.62176      2.79334        -0.120657      0.010886      0.074991
O       3.84943     13.53516     16.12906         0.634359      0.391774      0.061087
O      15.58017      1.95764      2.80955        -0.049354     -0.080357      0.190783
O      15.48267      2.00146     16.05857         0.331486     -0.462233      0.671416
O      15.55752     13.54335      2.83140         0.714656      0.048239      0.097231
O      15.56516     13.63282     15.99991         0.255687      0.018955      0.092143
O       3.85126      1.95781      7.15989        -0.251534     -0.230657      0.464455
O       3.91228     13.75054      7.24879        -0.773759     -0.485265      0.232120
O      15.48703      1.96254      7.23686         0.813651     -0.017079      0.554527
O      15.51947     13.57185      7.22260         0.814250      0.345164      0.222197
O       3.83249      1.94797     11.55982         0.414989     -0.165531      0.581837
O       3.89023     13.64786     11.60332        -0.533933      0.054205      0.730461
O      15.53215      1.97113     11.66075         0.101421     -0.285346     -0.249509
O       0.02589     13.64194     11.65000        -1.220201     -0.151159      0.329981
O       3.82247      5.86275      2.70733        -0.285177     -0.162305      0.656558
O       3.82279      5.81716     16.14383         0.286848      0.177714      0.089148
O      15.52009      5.78424      2.70007         0.818781     -0.277474      0.186306
O      15.52064      5.93347     16.00719         0.284206     -0.589489      0.465520
O       3.80341      5.80080      7.31277         0.511428      0.299270      0.251781
O      15.59085      5.89244      7.37554        -0.313634     -0.125558     -0.205772
O       3.90752      5.87441     11.60027        -0.386235     -0.059060      0.342552
O       0.00307      5.77869     11.70464        -0.229902      0.165746      0.293711
O       3.88883      9.71910      2.84673        -0.019348      0.085176      0.112033
O       3.82394      9.71767     16.04341         0.580206      0.332568      0.317320
O      15.59545      9.75080      2.85951         0.280713     -0.332045     -0.208025
O      15.53628      9.72087     15.98276         0.252328      0.041695      0.441865
O       3.86883      9.75170      7.26328        -0.220503      0.182753      0.157075
O      15.53005      9.73201      7.23888         0.749628     -0.007183      0.192459
O       3.81121      9.77491     11.60701         0.897725     -0.234917      0.413915
O      15.57973      9.71477     11.61147        -0.189119      0.304051      0.354476
O       7.83025      1.90617      2.95122        -0.184396      0.135377      0.141422
O       7.70857      1.82663     15.92258         0.230162      0.056587      0.496023
O       7.80775     13.56559      2.82759         0.363049      0.134591      0.063958
O       7.80538     13.71912     16.07202        -1.085682     -0.169021      0.208249
O       7.79926      1.99018      7.28573        -0.535523     -0.080768     -0.028883
O       7.81749     13.57703      7.23695        -0.033192      0.123155      0.582325
O       7.79049      1.93512     11.61515         0.671996     -0.292301      0.469533
O       7.75781     13.58736     11.57653         0.466461      0.152141      0.900607
O       7.75848      5.76826      2.94595         0.598908      0.057194      0.427608
O       7.79400      5.87572     16.08729        -1.344997     -0.127570      0.643110
O       7.68667      5.81853      7.22346        -0.032912      0.296293     -0.193491
O       7.72024      5.81062     11.66043         1.051659      0.629941     -0.104969
O       7.78297      9.82782      2.83083         0.406524     -0.438313      0.572994
O       7.74714      9.76732     16.08389         0.428146     -0.310847      0.369713
O       7.77147      9.80910      7.22481         0.090984     -0.186564      0.181298
O       7.81152      9.79360     11.61980        -0.650529     -0.054474      0.363833
O      11.73364      1.92429      2.86482        -0.714998     -0.127694      0.596059
O      11.60854      1.95167     16.12923        -0.086216     -0.335531     -0.150814
O      11.69237     13.60858      2.83398        -0.415510      0.169703     -0.161076
O      11.72715     13.55833     16.09469        -0.752612      0.358311     -0.066975
O      11.63693      1.97192      7.27701         0.489316      0.104929      0.027577
O      11.70947     13.64377      7.28642         0.071295     -0.207991     -0.031912
O      11.65782      1.94438     11.70100         0.095883     -0.277249     -0.025388
O      11.65478     13.62985     11.59077         0.396455     -0.085993      0.033023
O      11.68579      5.81991      2.74713         0.065548     -0.086223      0.583641
O      11.62238      5.78158     16.02834        -0.093826      0.223631      0.599945
O      11.60414      5.82462      7.32811         0.140412      0.401084     -0.037357
O      11.65633      5.84259     11.66564         0.072151      0.139934      0.088822
O      11.71605      9.71375      2.83357        -0.575322     -0.243242      0.119238
O      11.67989      9.70635     16.02320        -0.692310     -0.002896      0.203525
O      11.69374      9.68003      7.16503        -0.280041      0.182511      0.431092
O      11.64277      9.67675     11.64754         0.560656      0.217202     -0.061473
O       1.93352      3.84641      2.79128         0.005255      0.664459      0.369516
O       1.83946      3.91688     16.18357         0.046433      0.028423     -0.227769
O       1.87192     15.54633      2.87117         0.251452     -0.114305     -0.206290
O       1.96508      0.02367     16.02995        -0.265113     -0.302742      0.108561
O      13.63493      3.85409      2.83823        -0.144105      0.230514      0.387561
O      13.54672      3.92275     15.95205         0.362559     -1.313322      0.674464
O      13.69655     15.52684      2.62115        -0.117110      0.378172      0.663501
O      13.53866     15.51337     16.22105         0.181221      0.563193     -0.415357
O       1.88777      3.91101      7.18699        -0.005521     -0.139072      0.276537
O       1.82768      0.02436      7.23041         0.095265     -0.257245      0.234927
O      13.58921      3.90979      7.19630         0.015465     -0.046684      0.741776
O      13.61074     15.54365      7.06486        -0.121258      0.726366      1.034157
O       1.94767      3.83323     11.65676        -0.218563      0.292308     -0.043904
O       1.87119      0.00332     11.58441         0.241708      0.377893      0.654870
O      13.60765      3.86169     11.66725        -0.116705      0.094816      0.190941
O      13.61337     15.59169     11.72673         0.013228     -0.127535     -0.401956
O       1.88234      7.78404      2.71983         0.122437      0.386837      0.628399
O       1.86720      7.82006     16.00494         0.346484      0.196798      0.117185
O      13.76147      7.75456      2.75712        -0.713804     -0.309672      0.308071
O      13.55997      7.74860     16.00179        -0.064641      0.648643      0.554034
O       1.94535      7.81979      7.27933        -0.090283      0.236159      0.436546
O      13.65914      7.83920      7.28072        -0.361854     -0.735168      0.327559
O       1.81764      7.79372     11.63207         0.760174     -0.241647      0.203112
O      13.63930      7.78607     11.73030         0.113020     -0.055722     -0.003298
O       1.93622     11.65815      2.85838         0.204256      0.088288     -0.221831
O       1.93003     11.64312     16.13661        -0.082784      0.645405     -0.321566
O      13.65221     11.62910      2.90285        -0.362865     -0.056809     -0.164562
O      13.60247     11.64651     15.92207         0.287426      0.223326      0.551114
O       1.89169     11.64635      7.33024         0.085668      0.617075     -0.067593
O      13.62224     11.67371      7.21376        -0.035230     -0.237989     -0.057991
O       1.98134     11.74893     11.46748        -0.297633     -1.295998      0.857988
O      13.65392     11.61533     11.63361        -0.257122      0.607370      0.106714
O       5.81784      3.86565      2.91012        -0.193678     -0.773235      0.741579
O       5.85643      3.87639     16.01362        -0.175121      0.092179      0.417026
O       5.91084     15.57952      2.79891        -0.142392     -0.556281      0.275762
O       5.70312      0.04666     16.02901         0.106731     -0.810198      0.331273
O       5.73030      3.85116      7.24324         0.357099      0.489082      0.282351
O       5.87782     15.58792      7.27809         0.059334      0.127167      0.309121
O       5.83529      3.88690     11.61296        -0.195188      0.303666      0.141197
O       5.80827     15.57917     11.61309         0.108801      0.420573      0.804727
O       5.88582      7.75245      2.76537        -0.203422      0.662631      0.920893
O       5.75278      7.79165     16.15065         0.601970      0.444001      0.321073
O       5.72108      7.91277      7.15115         0.337640     -1.214361      0.435295
O       5.84215      7.79659     11.57964        -0.115005      0.519869      0.621023
O       5.85160     11.68363      2.94171        -0.063225     -0.008341     -0.197335
O       5.88053     11.66141     16.05001        -0.275914      0.929055      0.349083
O       5.81443     11.68582      7.26104        -0.213884      0.164029      0.461505
O       5.84737     11.69624     11.70946        -0.304920     -0.221112      0.260797
O       9.75849      3.83504      2.86834        -0.023476      0.127927      0.627710
O       9.59335      3.86545     15.94872         0.119929     -0.846828      0.352548
O       9.76036     15.55267      2.87302        -0.191196     -0.310155      0.021229
O       9.71329     15.57733     16.04964         0.232442      0.044227      0.374617
O       9.65986      3.90605      7.25811         0.175216      0.594922      0.377707
O       9.75024     15.59761      7.14165        -0.030433      0.058028      0.627119
O       9.69706      3.92108     11.46237         0.187916      0.007634      0.609756
O       9.71247     15.53813     11.62291         0.015819      0.208397      0.149745
O       9.73943      7.77121      2.83387        -0.278623      0.076981      0.295745
O       9.69658      7.71392     15.97876         0.133843      1.673583      0.938380
O       9.67806      7.82978      7.18308        -0.135466     -0.298174      0.323522
O       9.76937      7.82854     11.71053        -0.527728     -0.785675     -0.181821
O       9.79177     11.67764      2.72526        -0.183598      0.209983      0.285853
O       9.64193     11.72914     16.07247         0.279166     -0.779948      0.290541
O       9.76661     11.68703      7.22121         0.023219     -0.374857      0.519895
O       9.69277     11.68763     11.61812         0.184880     -0.238440      0.300733
