  # total energy = -7877.40106218 
CRSYTAL
PRIMVEC
    15.2000000000000000    0.0000000000000000    0.0000000000000000
     0.0000000000000000   15.2000000000000000    0.0000000000000000
     0.0000000000000000    0.0000000000000000    17.000000000000000
PRESSURE
7.75937 7.65283 2.652 -0.248174 0.063179 -0.06759
PRIMCOORD
320 1
Pb       3.67783      3.93625      4.39951        -0.032630      0.049041     -0.492463
Pb       3.71726      3.80262      0.05692         0.408755      0.088468     -0.289381
Pb       3.72555      0.10562      4.28834        -0.464964     -0.179214     -0.489490
Pb       3.95132     15.19095      0.08048        -0.625191      0.321252     -0.332783
Pb      15.14763      3.94716      4.31547         0.289006     -0.638866     -0.581564
Pb      15.18788      3.82564     16.84921        -0.027408      0.095017     -0.030195
Pb      15.19039      0.10867      4.21474         0.161914     -0.654429     -0.273434
Pb       0.16915     15.19635     16.86719        -0.233960     -0.131679      0.386993
Pb       3.77620      3.70919      8.49117        -0.076720      0.367619      0.007836
Pb       3.78695     15.17559      8.29837        -0.168325     -0.108651      1.146650
Pb      15.07319      3.73486      8.46895        -0.027316     -0.271512      0.294027
Pb      15.16743      0.01069      8.63240        -0.001978      0.347966     -0.234917
Pb       3.84292      3.71566     12.70544        -0.040539      0.164999      0.209984
Pb       3.98378     15.03370     12.70424        -0.976362      0.537363     -0.234066
Pb       0.18199      3.58419     12.85222        -0.353815      0.141025     -0.225030
Pb       0.04384     14.97944     12.64776         0.522855      0.271406      0.444710
Pb       3.65363      7.75778      4.37587         0.201302     -0.138774     -0.558318
Pb       3.81901      7.74749      0.18703         0.266565     -0.623325     -0.553268
Pb      15.14724      7.75421      4.24921         0.598601     -0.325486     -0.109134
Pb       0.13989      7.64753      0.01940         0.209613     -0.217480     -0.295646
Pb       3.71713      7.46249      8.51876         0.676562      0.439205      0.077720
Pb      15.04723      7.62454      8.56225         0.142464     -0.307144      0.042976
Pb       3.74763      7.50748     12.75311         0.451927     -0.299496     -0.297807
Pb      15.13818      7.39364     12.78753         0.026210      0.191006     -0.054886
Pb       3.61502     11.66543      4.36904         0.018877     -1.068960     -0.750446
Pb       3.90353     11.46264     16.89372        -0.293842     -0.911969      0.458090
Pb      14.96127     11.59837      4.37985         0.642038     -0.162036     -0.120043
Pb       0.03197     11.44367     16.83134         0.685980     -0.460604      0.169051
Pb       3.67122     11.42735      8.38456         1.226216     -0.492268      0.264679
Pb      15.06611     11.30230      8.65352        -0.309916     -0.009627     -0.283691
Pb       3.74478     11.26121     12.69887         0.202316     -0.194792      0.066796
Pb      15.13038     11.32911     12.57243         0.911001      0.009660      1.312239
Pb       7.72271      3.86296      4.13999        -0.822677     -0.513353      0.630165
Pb       7.67046      3.86601      0.09723        -0.451892      0.069174     -0.054186
Pb       7.57937      0.04503      4.14142         0.123487     -0.021258      0.437854
Pb       7.56808     15.14153      0.06905         0.372139      0.384099      0.017159
Pb       7.73733      3.79143      8.24347        -0.954898     -0.101791      0.907734
Pb       7.51215     15.16300      8.45710         0.485419      0.146327     -0.098869
Pb       7.48673      3.69231     12.64555         0.168470      0.493859      0.253217
Pb       7.54602      0.04040     12.71134         0.192708      0.104860      0.065795
Pb       7.59938      7.64840      4.31628         0.168445     -0.224451      0.046804
Pb       7.58622      7.51305      0.05932        -0.386860     -0.042714      0.074251
Pb       7.60794      7.57399      8.44599        -0.683753      0.035582     -0.820916
Pb       7.58422      7.45360     12.67412        -0.662594     -0.118735      0.690936
Pb       7.56270     11.42744      4.15218         0.551311     -0.118825      0.256092
Pb       7.54309     11.40589      0.12362         0.259000     -0.162067     -0.565489
Pb       7.48949     11.38007      8.32717        -0.012759     -0.205172      0.427093
Pb       7.52812     11.39066     12.71284        -0.263669     -0.406785     -0.030678
Pb      11.50485      3.86694      4.04020         0.151183     -0.969059      0.524211
Pb      11.49972      3.84619     16.94370        -0.192829     -0.637414     -0.452904
Pb      11.47179      0.06017      4.16485         0.242069     -0.342072     -0.147360
Pb      11.35868     15.16764     16.92943         0.057472      0.265543      0.123307
Pb      11.38568      3.65525      8.39451         0.488004      0.027507     -0.003351
Pb      11.21540     15.08191      8.76503         0.278913      0.287329     -0.790986
Pb      11.41356      3.72875     12.68621        -0.543679      0.302357      1.146163
Pb      11.25178      0.06483     12.89500         0.419454     -0.413165     -0.056971
Pb      11.48502      7.57334      4.11937         0.142067      0.777462      0.562027
Pb      11.42975      7.65217     16.97143        -0.307237     -0.105424     -0.122875
Pb      11.39908      7.62050      8.46429        -0.042571     -0.411820     -0.188703
Pb      11.30544      7.47689     12.72689        -0.254759      0.241008     -0.184568
Pb      11.43710     11.58262      4.17481         0.043523     -0.451079      0.222171
Pb      11.44665     11.20084     16.97421        -0.477285      0.465164     -0.533391
Pb      11.15155     11.44021      8.61026         0.269509     -0.277952      0.266927
Pb      11.25725     11.07291     12.94489         0.283135      0.652014     -0.528450
Ti       1.85184      1.89425      2.17585        -0.078004     -0.529220     -0.401051
Ti       1.95896      1.84742     14.94492         1.074208      0.079120     -0.207146
Ti       1.90546     13.27695      2.09597        -1.186555      0.363837      1.763509
Ti       2.00773     13.28056     14.95971        -1.197307     -0.239583     -0.938527
Ti      13.34357      1.79198      2.01942         0.091378      1.047956      1.191156
Ti      13.35324      1.74928     15.00883        -0.883752      1.638746     -0.395073
Ti      13.33464     13.27794      2.03408         0.911500      0.646597      0.943517
Ti      13.33701     13.19429     14.91403        -0.061551      0.238068      0.958874
Ti       1.85412      1.90930      6.49447        -0.786661     -0.119009      0.070575
Ti       1.82353     13.25858      6.49863        -0.322818      1.060391     -0.395664
Ti      13.30435      1.79036      6.37765        -0.335406      0.463749      0.243071
Ti      13.28144     13.26629      6.82810        -0.552892      0.132975     -1.552333
Ti       1.98916      1.76583     10.81405        -0.630916      0.096992     -0.610770
Ti       1.96800     13.17318     10.60651        -0.331952      0.988923      1.710195
Ti      13.31255      1.81128     10.98543         0.822530      0.071422     -1.592459
Ti      13.22733     13.24968     10.85773        -0.512715     -0.759287     -0.665778
Ti       1.88280      5.63875      2.22793        -0.236174      0.560508     -1.111559
Ti       1.85657      5.69124     14.99519         0.663226      0.035968      0.995340
Ti      13.35110      5.74789      2.10571         0.759109     -0.901250      0.390704
Ti      13.16118      5.78059     14.94461         1.500830     -2.783559      1.122715
Ti       1.74375      5.73321      6.62983         1.817429     -0.714139     -1.254580
Ti      13.25850      5.66866      6.39226        -0.869314     -0.274329      0.917207
Ti       1.78922      5.61261     10.75810         0.473467     -1.149933     -0.629970
Ti      13.17179      5.54346     10.76561         0.738156      0.886296     -1.141576
Ti       1.89915      9.51629      2.19637         1.019502      0.643013      0.574607
Ti       1.95060      9.46596     14.86237         0.246256     -0.129304      0.010381
Ti      13.39294      9.54880      2.09748         0.167004     -0.694223     -0.105439
Ti      13.39512      9.41090     14.90257        -0.174180      0.003393     -0.241693
Ti       1.89679      9.46477      6.57637        -0.097209     -0.178880     -1.387025
Ti      13.29518      9.45854      6.54983         0.210055     -0.224226     -1.439895
Ti       1.85427      9.38291     10.73324         0.793189     -0.455706      0.432640
Ti      13.26879      9.39027     10.85548        -1.451682      0.271830     -0.440737
Ti       5.59494      1.91375      2.23841         0.480989      1.409335     -0.368169
Ti       5.70676      1.87373     15.03604        -0.774221      0.851617     -0.369886
Ti       5.67462     13.33605      2.35167        -0.370016     -0.717560     -0.390192
Ti       5.80756     13.29275     14.90767        -0.349413     -0.610975     -0.070670
Ti       5.67689      1.93539      6.40636         0.738391     -0.092897      1.372772
Ti       5.72529     13.31482      6.41279         0.056776     -0.119602     -0.024198
Ti       5.69769      1.82935     10.59219         0.243578      0.289359      0.858766
Ti       5.68014     13.21525     10.73128        -0.179649      0.075879     -0.532930
Ti       5.64882      5.73883      2.44790         0.327591     -0.197871     -1.759972
Ti       5.63490      5.67048     15.15262         0.241590      0.471421     -0.271605
Ti       5.61712      5.70814      6.45276         1.206308      0.637690     -0.039788
Ti       5.61560      5.63131     10.63609        -0.717080      0.428467     -1.291130
Ti       5.76708      9.53545      2.35351        -1.333719     -0.190993      0.193782
Ti       5.68403      9.42834     14.94508        -0.001008     -0.572836      0.005916
Ti       5.73620      9.51106      6.34720        -0.894110     -0.682107      1.968895
Ti       5.66734      9.42263     10.61003        -0.790686      0.015946     -1.001595
Ti       9.49071      1.88037      2.25989         0.143238     -0.447213     -0.972887
Ti       9.41107      1.83281     15.02040         1.215535      0.646138      0.325023
Ti       9.55351     13.34197      2.15980         0.047635     -1.510145      0.552325
Ti       9.53763     13.26543     15.02732        -0.423248     -0.674096      0.490629
Ti       9.56155      1.83326      6.33997         0.066286      0.019468     -0.060277
Ti       9.52489     13.25073      6.44846         0.005909      0.786815      1.582565
Ti       9.55698      1.89150     10.71353        -1.418479     -0.207710      0.081980
Ti       9.42435     13.28267     10.91911         0.511050     -0.292996     -0.963550
Ti       9.56304      5.74407      2.26037        -0.920479      0.441131     -1.007214
Ti       9.46786      5.66531     14.95824        -1.152518     -0.679101     -0.672503
Ti       9.48878      5.65762      6.34745         0.033389      0.633461      1.678281
Ti       9.35641      5.66191     10.62533        -0.208498     -0.165060      0.803448
Ti       9.61635      9.54488      2.20766        -1.166338     -0.244079      0.359285
Ti       9.41730      9.39990     15.02241        -0.228761      0.031838      1.110361
Ti       9.53298      9.46964      6.32096        -1.221068     -0.130126      0.275042
Ti       9.32238      9.46076     10.69682         1.440480      0.050364     -0.164888
O       1.96766      1.85207      0.37601        -0.467662      0.292932      0.285869
O       2.10247      1.83792     13.14137        -0.426088     -0.285775      0.292529
O       1.84219     13.37455      0.32016         0.136094     -0.593344     -0.007740
O       1.95351     13.26938     13.15682         0.153550      0.138569      0.686836
O      13.41010      1.86976      0.25684        -0.183485     -0.288329     -0.034487
O      13.27247      1.68136     13.18891        -0.091128      0.644289     -0.119335
O      13.45109     13.29871      0.29817        -0.152116     -0.234072     -0.238295
O      13.30953     13.08706     13.15528        -0.036825      0.514084     -0.446073
O       1.74437      1.93588      4.72024         0.481173     -0.119727     -0.152817
O       1.76887     13.28099      4.69551         0.299066     -0.065009      1.137109
O      13.45721      1.85629      4.60622        -0.831174     -0.203111      0.146242
O      13.19368     13.17390      4.98800        -0.064182      0.102353      0.014819
O       1.86278      1.78801      9.03192        -0.138940      0.121052     -0.769998
O       1.93289     13.34711      8.85728        -0.016936     -0.648520     -0.523675
O      13.16381      1.89093      9.16685         0.605137      0.328902      0.211259
O      13.28504     13.13737      9.01998        -0.076836      0.249361     -0.418595
O       1.83898      5.58624      0.35138         0.149112      0.085809      1.765536
O       1.89192      5.75504     13.23345        -0.209520     -0.245324     -1.001465
O      13.25150      5.74700      0.32817         0.057488     -0.101838      0.527340
O      13.21786      5.69460     13.21703        -0.105172      0.054104     -1.726675
O       1.83585      5.61855      4.77316         0.219381      0.202424      0.520861
O      13.30707      5.71902      4.61757        -0.084647      0.051342     -0.224817
O       1.80311      5.69075      8.95032        -0.045978     -0.426846     -0.286076
O      13.23331      5.50304      8.89605        -0.018504      0.359435      1.868498
O       1.80947      9.57605      0.42807         0.542423     -0.353975     -0.439316
O       1.94089      9.42799     13.03797         0.022790     -0.415407      0.759277
O      13.42507      9.29063      0.27724        -0.444075      1.020706      1.262249
O      13.35185      9.36708     13.07580        -0.311072      0.378949      0.762807
O       1.88583      9.40232      4.72122        -0.235244     -0.002687      1.030633
O      13.46782      9.28515      4.70374        -0.977047      0.943264      0.684045
O       1.82684      9.46384      8.95969        -0.029050     -0.006507     -0.436946
O      13.25119      9.46835      9.02426        -0.063779     -0.461917     -0.438478
O       5.61226      1.89071      0.42589         0.303296     -0.305808      0.806203
O       5.56304      1.96116     13.18122         0.663163     -0.518044      1.222234
O       5.64199     13.24714      0.51949         0.228098     -0.168190      0.750466
O       5.83112     13.33108     13.07740        -0.595251     -0.396970      1.796414
O       5.64232      1.78945      4.66427        -0.074617      0.182678     -0.306600
O       5.73481     13.40056      4.63507        -0.157139      0.240624     -0.264434
O       5.61502      1.80693      8.85160         0.323468      0.341961     -0.299231
O       5.60543     13.22888      8.96745         0.513043     -0.106443     -0.956853
O       5.67678      5.77051      0.54236         0.208895     -0.111227      1.179300
O       5.67321      5.73191     13.35585        -0.048000     -0.211984      0.031610
O       5.71271      5.65529      4.63942        -0.121960     -0.048559      0.035301
O       5.68053      5.59594      8.83133        -0.215847      0.210949      0.576630
O       5.50737      9.57593      0.58847         0.538517      0.141487     -0.236636
O       5.53612      9.34702     13.18746         0.595473      0.106555     -0.414863
O       5.81502      9.41749      4.61415        -0.214864      0.340667     -1.408009
O       5.70666      9.49112      8.77515         0.079005      0.163787      1.518661
O       9.40376      1.64131      0.45153         0.171362      0.817142      0.584657
O       9.52031      1.70714     13.21687        -0.119455      0.647861      0.411186
O       9.49611     13.30150      0.41901        -0.147137     -0.043635     -0.532315
O       9.45553     13.25303     13.23250         0.125216     -0.244338     -0.007854
O       9.58690      1.92270      4.51474        -0.217875     -0.705482      0.936469
O       9.69064     13.25024      4.74255        -0.084922      0.181332     -1.543111
O       9.60497      1.89679      8.94098         0.068717     -0.380555      0.119473
O       9.48905     13.31405      9.08446        -0.225642     -0.075396      0.556758
O       9.46121      5.72988      0.43419         0.498363     -0.149091      1.008592
O       9.34147      5.59403     13.14241         0.259057      0.215532      0.706468
O       9.61454      5.61400      4.62909        -0.113242      0.105785     -1.480065
O       9.27767      5.79271      8.84674         0.814137     -0.350053      0.690017
O       9.62322      9.44211      0.42246         0.016370      0.123143     -0.612313
O       9.52910      9.48000     13.26287        -0.481790      0.008811     -0.398829
O       9.32510      9.61210      4.55804         0.797873     -0.378090      0.504310
O       9.44717      9.41074      8.89979        -0.080998     -0.040885      0.336685
O       3.72877      1.89691      2.60062         0.258836      0.186980      0.284700
O       3.81404      1.87156     15.46186         0.568519      0.113166     -0.423256
O       3.69221     13.41642      2.74212         0.769993     -0.298645     -0.430314
O       3.81531     13.18420     15.32386         1.610028      0.274409     -0.441675
O      15.16562      1.81472      2.47253        -0.097438      0.365131     -0.068551
O       0.07114      1.89666     15.14388        -0.464990     -0.304032      0.370859
O       0.01041     13.21375      2.75846        -0.843548      0.401850     -1.333918
O       0.03075     13.28367     15.23523        -0.435213      0.179511     -0.017053
O       3.75776      1.87366      6.94265         0.570007      0.139470     -1.158027
O       3.79321     13.32907      6.72611        -0.290530     -0.239815     -0.098682
O      15.10657      1.96523      6.84616         1.084792     -0.225178      0.563132
O      15.18250     13.29875      6.91415         0.294787     -0.460485      0.427188
O       3.83753      1.89400     11.08436         0.919504      0.006039     -0.235855
O       3.80516     13.05974     11.11408        -0.417522      0.751020     -0.197359
O       0.03158      1.74065     11.23882        -0.103381     -0.026129     -0.001735
O       0.02558     13.26520     11.00241         0.601992     -0.052963      0.115648
O       3.77521      5.69640      2.71882        -0.546965     -0.012598     -0.268053
O       3.81042      5.61901     15.47707        -0.456916     -0.243180     -0.312475
O       0.00014      5.61822      2.62555        -0.403404      0.296439     -0.555239
O      15.17459      5.77322     15.30122         0.103353     -0.045777     -0.145605
O       3.81381      5.79588      6.82319        -1.423086     -0.673412      0.071369
O      15.15044      5.72989      6.73599        -0.871422     -0.517119      0.549866
O       3.70743      5.52260     11.10880         0.752858     -0.113461     -0.270422
O      15.08302      5.74978     11.11799         0.151754     -0.303363     -0.193600
O       3.77090      9.38809      2.65177         0.202386      0.040886      0.051010
O       3.82723      9.68609     15.25217        -0.973142     -0.651237      0.404037
O       0.06479      9.52766      2.47598        -2.033120     -0.089517      0.489271
O       0.06617      9.33124     15.26332        -0.313148     -0.074076     -0.192655
O       3.82426      9.39994      6.77525        -0.891098      0.362209      0.050192
O      15.17630      9.42654      6.81100         0.302978     -0.144792      0.784331
O       3.81234      9.46549     10.96118        -0.746377     -0.065267      0.207747
O      15.12516      9.28258     11.04295         1.373108     -0.286884      0.016788
O       7.55987      1.81503      2.56497        -0.278365      0.222139      0.108780
O       7.59904      1.69991     15.28561        -0.744170      0.128984      0.158739
O       7.64235     13.30430      2.58271        -1.514098     -0.154148     -0.104829
O       7.63163     13.42683     15.44658        -0.765960     -1.143362     -0.481943
O       7.65240      1.90740      6.80827        -0.785427     -0.184342     -0.539515
O       7.67203     13.27099      6.83965        -1.045812      0.225614     -0.120765
O       7.61313      1.64765     11.00569        -0.362442      0.863570     -0.034802
O       7.54495     13.32331     11.24793         0.794331     -0.325742     -0.592236
O       7.74709      5.56183      2.66001        -0.851340      0.883155     -0.370371
O       7.61647      5.82077     15.39951        -0.587612     -0.397941      0.351541
O       7.55341      5.58940      6.80691         0.666483     -0.124399     -0.559160
O       7.43993      5.66491     11.12823         1.886224      0.171783     -0.184149
O       7.65754      9.68850      2.37704        -0.883619     -0.003447      0.407249
O       7.54608      9.18666     15.31835         1.181589      1.059396     -0.011613
O       7.52215      9.56479      6.67040         1.738592      0.196020      0.578395
O       7.49870      9.33480     11.14873         0.241052      0.586900     -0.202997
O      11.38798      1.81457      2.46194         0.600824     -0.376763     -0.035850
O      11.43142      1.83939     15.37474        -0.713242      0.228646     -0.089921
O      11.44995     13.36471      2.47761         0.296056     -0.328921      0.275807
O      11.38407     13.18208     15.46283         0.796928     -0.052958     -0.677396
O      11.44302      1.85462      6.77205        -0.648266     -0.126147     -0.103696
O      11.33565     13.24060      7.09064         0.288992      0.163257     -0.118837
O      11.39573      1.89015     11.17395        -0.229318     -0.111776      0.281425
O      11.36681     13.25386     11.08545         0.070013     -0.527157      0.174974
O      11.50913      5.77815      2.63026        -0.903619     -0.422003     -0.656599
O      11.31957      5.57144     15.24142         0.272502     -0.019561      0.420849
O      11.37765      5.85824      6.74146        -0.644898     -0.407264      0.160880
O      11.21646      5.49212     11.08484         0.945781      0.361301     -0.360555
O      11.46171      9.53170      2.50338         0.885689     -0.382581      0.057857
O      11.47486      9.51549     15.27304        -0.576256      0.091305      0.078094
O      11.37006      9.26258      6.71040        -0.474150      0.540775      0.099757
O      11.31955      9.54010     11.22768        -0.123888     -0.240899     -0.488765
O       1.83586      3.73079      2.59629         0.257261      1.123633      0.173849
O       1.90211      3.75760     15.14937        -0.080664      0.214090      0.550903
O       1.76449      0.00723      2.50554         0.485848     -0.413653      0.253643
O       1.99174     15.18355     15.40161        -0.084337     -0.471582     -0.651794
O      13.29088      3.70955      2.48469        -0.182900      0.860360     -0.450814
O      13.30495      3.82284     15.41898         0.013059     -0.492963     -0.532202
O      13.36464     15.12942      2.55213        -0.290643      0.108155     -0.179986
O      13.27230     15.14891     15.23460         0.134185     -1.422907      0.166050
O       1.88402      3.78716      6.83839         0.133537      0.400108      0.491409
O       1.88579      0.04213      6.80888        -0.424802     -0.856205     -0.017653
O      13.19075      3.75238      6.81051         0.353852      0.515818     -0.244364
O      13.36992     15.16496      6.89158        -0.419943      0.000027      0.307920
O       1.82339      3.63017     11.04678        -0.282616      1.713817      0.580249
O       2.06590     15.07504     11.02634        -0.344625     -0.716554      0.344231
O      13.38662      3.74982     11.34045        -0.389419      0.129983     -0.497870
O      13.33051     15.11202     11.02603        -0.271628     -0.158630      0.540173
O       1.85909      7.55246      2.48804        -0.118762     -0.219777      0.045451
O       2.05644      7.56680     15.37682        -0.063367      0.921275     -0.158734
O      13.32552      7.62672      2.44990         0.211494      0.136588      0.219084
O      13.18632      7.54231     15.25810         0.058686      1.546273      0.125112
O       1.86188      7.57415      7.02297        -0.226384      0.283062     -0.386557
O      13.30454      7.52123      6.85937         0.215455      0.430961      0.585994
O       2.03640      7.39109     11.04469        -0.643976      2.560771      0.136917
O      13.06936      7.50660     11.13183         0.149303     -0.897243     -0.472164
O       1.90474     11.45145      2.55511         0.526973     -0.520031     -0.086054
O       1.84966     11.33244     15.23600        -0.225337      0.528415      0.180820
O      13.26043     11.43494      2.59437         0.238393     -0.621236     -0.459251
O      13.40994     11.27051     15.32179        -0.278490      0.869727     -0.274409
O       1.86334     11.35226      6.84186         0.113131      0.403135      0.023930
O      13.31591     11.28152      6.92171        -0.303536      0.381288      0.289088
O       1.89034     11.26670     11.13030        -0.492463      0.369771     -0.834650
O      13.48877     11.31744     11.06229        -1.016348     -0.080325     -0.283380
O       5.70553      3.87759      2.60953        -0.023521     -1.838776      0.101284
O       5.80461      3.72530     15.51431         0.042101      0.324709     -0.529423
O       5.47494      0.04457      2.53752         1.103620     -0.853425      0.235822
O       5.68193     15.12562     15.34973        -0.466084      0.007336     -0.178307
O       5.63123      3.79510      6.79796        -0.205851     -1.203833     -0.234458
O       5.78573     15.13762      6.87498        -0.393826      1.147587     -0.375783
O       5.75626      3.79222     11.01397        -0.137343     -1.751982      0.201629
O       5.68317     15.11669     10.94769        -0.599603      0.789009      0.544202
O       5.86479      7.60579      2.73454        -0.284854      0.460886     -0.634473
O       5.58672      7.63829     15.59830        -0.386561     -0.699994     -0.450602
O       5.75558      7.57661      6.72520         0.174981      0.303142      0.058057
O       5.59435      7.49911     10.89373        -0.047660      0.719303      0.454172
O       5.52259     11.44748      2.83711         0.549478      0.264887     -0.848205
O       5.81820     11.30117     15.33099         0.514158      1.832880      0.053213
O       5.66849     11.46142      6.70688        -0.135553     -0.572223      0.143790
O       5.65239     11.36742     11.04025         1.080122     -1.404554      0.392404
O       9.54886      3.76498      2.58216         0.419189      0.211728     -0.616982
O       9.34416      3.73500     15.41811         0.415240     -0.231898     -0.213091
O       9.43398     15.08812      2.62526         0.467583      1.876060      0.312262
O       9.49944     15.13346     15.45575         0.630211     -0.069878     -0.603473
O       9.54832      3.75045      6.74877         0.242525      0.194757     -0.025624
O       9.49739      0.04149      6.89376         0.154836     -0.961651     -0.316221
O       9.33273      3.72285     11.04701         0.076784      0.345724     -0.143413
O       9.55860     15.15956     11.24649        -0.003015      0.009398     -0.638690
O       9.42612      7.65512      2.59731         0.584334     -0.756952      0.027981
O       9.57663      7.51946     15.32404         0.485662      0.695634      0.007961
O       9.20725      7.56112      6.62304         0.747150      0.703975      0.110753
O       9.42469      7.59067     11.10935         0.387891     -1.242795     -0.297859
O       9.55530     11.39296      2.56910         0.221677      1.216159     -0.093038
O       9.41605     11.32190     15.48159        -0.078709      0.136730     -0.448171
O       9.43406     11.36967      6.86317         0.785422     -0.616448     -0.154179
O       9.34710     11.29733     11.05791         0.003777      0.948208      0.463991
