  # total energy = -7883.55282031 
CRSYTAL
PRIMVEC
    15.3600000000000000    0.0000000000000000    0.0000000000000000
     0.0000000000000000   15.3600000000000000    0.0000000000000000
     0.0000000000000000    0.0000000000000000    17.440000000000000
PRESSURE
0.492325 0.443791 -1.73432 0.190369 0.287641 -0.032764
PRIMCOORD
320 1
Pb       3.74812      3.85260      4.24857         0.333843      0.256022     -0.011922
Pb       3.78733      3.85765     17.33643         0.143292      0.090572      0.709105
Pb       3.82581      0.01778      4.23480        -0.144600      0.334198      0.057052
Pb       3.87202      0.08416      0.04479        -0.281288     -0.323571     -0.164626
Pb      15.25900      3.84344      4.31794        -0.054212     -0.104676      0.216071
Pb      15.26949      3.83957     17.41611         0.120015     -0.148644     -0.120686
Pb      15.22519     15.26698      4.29333         0.539722      0.561272      0.133943
Pb      15.31640     15.30626      0.03489         0.396097      0.156182     -0.204635
Pb       3.84649      3.80780      8.70441        -0.077124      0.267950     -0.854855
Pb       3.81350     15.28150      8.78519        -0.036385      0.227360     -0.830742
Pb       0.07758      3.67637      8.67545        -0.146246      0.567349      0.211891
Pb       0.07540     15.35942      8.63517        -0.020592      0.172479     -0.679700
Pb       3.70546      3.89456     13.06773         0.725861      0.197025     -0.172344
Pb       3.85736     15.25395     13.20891         0.386299      0.142644     -0.570418
Pb      15.27106      3.82813     13.03218        -0.215778     -0.045646     -0.611683
Pb       0.01453      0.03988     13.00688         0.036347      0.276560      0.171001
Pb       3.82264      7.63072      4.26916        -0.104983     -0.284998      0.022619
Pb       3.78366      7.72496     17.42566         0.168032     -0.056785     -0.346908
Pb      15.28499      7.55699      4.36159        -0.377575      0.179671      0.059238
Pb      15.35838      7.72295     17.36173        -0.060406     -0.207175     -0.051181
Pb       3.91085      7.55902      8.77529        -0.226882     -0.057948     -0.967600
Pb       0.02363      7.63210      8.75333        -0.250342      0.176954     -0.872492
Pb       3.77994      7.75603     13.05378         0.325093     -0.493440      0.041559
Pb       0.04676      7.68947     12.94007        -0.385575     -0.028486      0.596835
Pb       3.76358     11.46542      4.27839         0.537365     -0.097828     -0.237996
Pb       3.85085     11.43065     17.43837        -0.283739      0.348217     -0.390798
Pb      15.33947     11.50092      4.28630        -0.478115     -0.117855      0.298171
Pb       0.01839     11.45118      0.00165         0.068712      0.366547     -0.610882
Pb       3.72239     11.52496      8.67853        -0.001179      0.149686     -0.171103
Pb       0.01268     11.45154      8.63858        -0.077617      0.151545     -0.129426
Pb       3.77713     11.54764     13.05937        -0.202272      0.337725      0.248525
Pb      15.22806     11.44616     13.14232         0.112753      0.259245     -0.514494
Pb       7.63579      3.84941      4.39362         0.168809     -0.164440     -0.027695
Pb       7.65291      3.88241     17.29201         0.526055     -0.074357      0.087343
Pb       7.64961      0.08062      4.20188         0.448013     -0.123468      0.272196
Pb       7.75324     15.33406      0.00385         0.074252      0.077078     -0.615391
Pb       7.69894      3.67164      8.76516         0.656407      0.200899     -0.443045
Pb       7.63015     15.26009      8.64485         0.530491      0.296901     -0.096632
Pb       7.56969      3.73275     13.15976         0.446544      0.238448     -0.656392
Pb       7.62201     15.21232     13.17489         0.108127      0.308005     -0.691507
Pb       7.57834      7.69621      4.32015         0.162772     -0.150855      0.183670
Pb       7.78983      7.56670     17.40625        -0.129317      0.141712     -0.297105
Pb       7.53660      7.68886      8.68339         0.509863     -0.242613     -0.035772
Pb       7.58194      7.60999     12.99541         0.058074     -0.034241     -0.149813
Pb       7.67748     11.51928      4.31763        -0.143695      0.106631     -0.238788
Pb       7.73824     11.48259      0.03861        -0.023390      0.012981     -0.365968
Pb       7.63380     11.38832      8.72263         0.044296      0.553465     -0.322359
Pb       7.60064     11.41571     13.11012        -0.134655      0.086462     -0.069579
Pb      11.47448      3.84379      4.41123         0.590519      0.234383     -0.700971
Pb      11.42820      3.81658     17.31517         0.479086     -0.274589      0.291664
Pb      11.38234      0.09606      4.27371         0.523235     -0.376938     -0.195428
Pb      11.66396      0.00107     17.33224        -0.406692      0.234184      0.287746
Pb      11.56282      3.78696      8.75091        -0.260957     -0.167201     -0.451116
Pb      11.48406     15.20249      8.63192         0.162038      0.814074      0.184925
Pb      11.47564      3.87140     13.04507        -0.196945      0.078905     -0.861690
Pb      11.50881     15.30669     12.99807        -0.358647     -0.001273     -0.173563
Pb      11.45275      7.76085      4.34585         0.583634     -0.109310     -0.694290
Pb      11.52043      7.59437     17.40018        -0.142026      0.054588     -0.217090
Pb      11.41741      7.57795      8.72330         0.319252      0.468295     -0.276567
Pb      11.59168      7.74390     12.86241        -0.421831     -0.229490      0.094788
Pb      11.44386     11.51128      4.45403         0.396046     -0.184100     -0.587477
Pb      11.61244     11.54590      0.02353         0.065105     -0.114833     -0.745541
Pb      11.43420     11.53166      8.75895         0.305864     -0.332786     -0.343497
Pb      11.39561     11.46970     13.00017         0.849507      0.330250     -0.111187
Ti       1.89153      1.97071      2.31498        -0.182485     -0.113591     -0.155334
Ti       1.95864      1.90064     15.35485        -0.257442     -0.967703      0.992397
Ti       1.99303     13.41545      2.32996        -0.423197      0.809426     -1.427958
Ti       1.89644     13.42816     15.43534         0.653120     -0.415480      0.793426
Ti      13.42522      1.92602      2.34058        -0.001394     -0.361411     -0.382739
Ti      13.56759      1.93835     15.35039        -1.416884      0.171576      0.395760
Ti      13.50136     13.41178      2.26024        -1.055537      0.350567     -0.368153
Ti      13.50768     13.45946     15.33086        -0.198897     -0.439951      0.845670
Ti       2.04702      1.96156      6.57026        -0.282331     -0.572353      1.179653
Ti       2.04558     13.49341      6.60082        -1.155420      0.022829     -0.455910
Ti      13.48555      1.96221      6.67286        -0.212680      0.095939     -0.074036
Ti      13.48331     13.48201      6.68432         0.089414     -0.049890     -0.376930
Ti       2.08463      1.92441     11.05246        -1.480031      0.089743     -0.602942
Ti       1.83373     13.48923     11.05166         1.770323     -0.634721     -0.625139
Ti      13.47243      1.90070     10.97243        -0.241255      0.809872     -0.360937
Ti      13.53120     13.57296     10.97682        -2.085375     -1.754946     -0.075934
Ti       1.81907      5.79223      2.26486         1.600063     -0.437304      0.064535
Ti       1.86667      5.72016     15.36807         0.393057      0.838919     -0.657025
Ti      13.48601      5.70300      2.18942        -1.605600      0.415409      1.163636
Ti      13.43279      5.83962     15.32379         0.140940     -1.341479     -0.102638
Ti       1.84499      5.74286      6.70046         1.117183      0.229691      0.204001
Ti      13.43570      5.76564      6.76459         0.698601     -0.408242     -1.087499
Ti       1.87781      5.78928     11.00532         0.678276     -0.409483     -0.839117
Ti      13.47874      5.79818     10.92841        -1.458397      0.387581     -0.448920
Ti       1.79360      9.59757      2.33548         0.475046     -0.701914     -0.182675
Ti       1.85658      9.56050     15.40458         0.310991      0.338949      1.284854
Ti      13.36889      9.60678      2.26448        -0.309328     -0.843726      0.769680
Ti      13.37430      9.57287     15.38426         0.588473      0.726662      0.705752
Ti       1.86134      9.61076      6.61125        -0.384223     -0.783850      0.005722
Ti      13.36561      9.65830      6.67925        -0.043441     -1.290573     -0.123732
Ti       1.87596      9.60622     11.00186        -0.341300      1.542048     -0.920597
Ti      13.47061      9.67181     10.97063        -1.062310      0.014623     -0.956289
Ti       5.81718      1.97026      2.30411        -1.018119      0.108601     -1.391397
Ti       5.74550      1.98359     15.50229         0.589774     -1.107819     -1.806614
Ti       5.82123     13.49038      2.24462        -0.662402     -0.896130     -0.427399
Ti       5.75949     13.39795     15.53750        -0.252417      0.223277      1.336659
Ti       5.84094      1.88543      6.69560        -0.307316      0.345361     -1.240282
Ti       5.79336     13.43725      6.60032         0.248820      0.226472      0.839013
Ti       5.80151      1.89772     11.00701         0.408781     -0.398453      0.208321
Ti       5.77165     13.42527     10.98858        -0.380209      0.339512      1.265714
Ti       5.87909      5.73063      2.30143        -1.888204      0.281020      0.770585
Ti       5.74439      5.83767     15.37240        -0.198078     -0.471374     -0.952543
Ti       5.88146      5.67253      6.67165        -1.882689      0.981378     -0.088387
Ti       5.71227      5.73882     11.02841         0.542110      0.257882      1.356489
Ti       5.73754      9.58314      2.30425        -0.352602      0.439196      0.875002
Ti       5.79300      9.55813     15.38507        -0.295030     -0.009538     -0.121686
Ti       5.66052      9.62097      6.69309        -0.281466     -0.315655     -0.235277
Ti       5.61308      9.70537     11.09017         1.094473     -1.640338      0.266334
Ti       9.61907      1.97094      2.22276         0.647769     -0.245707     -0.444704
Ti       9.65842      1.79119     15.31427         0.132647      0.292381      0.599428
Ti       9.69099     13.40049      2.23341        -0.133130      0.599174     -0.298955
Ti       9.65009     13.32803     15.38802         0.169322      0.441957      0.679543
Ti       9.67021      1.89329      6.65072        -0.443455      0.036757     -0.209054
Ti       9.62059     13.41223      6.61613        -0.476842      0.136640      0.573257
Ti       9.60261      1.88649     11.04098         0.053262      0.337695     -0.336030
Ti       9.60046     13.40557     10.97664         0.385515      0.945826      0.660510
Ti       9.62904      5.74825      2.35839         0.842895     -0.100107     -0.859947
Ti       9.62632      5.71579     15.24268        -0.506351      0.434443     -0.075747
Ti       9.62015      5.79014      6.61017        -0.399290     -0.912022      0.629982
Ti       9.57018      5.79785     11.04734        -0.036315     -0.930315      1.075924
Ti       9.55490      9.59658      2.22228         0.305786     -0.788038      0.233313
Ti       9.59713      9.54967     15.39265        -0.088693     -0.380109      0.434112
Ti       9.50141      9.61631      6.69209         2.110633     -0.106022     -0.767670
Ti       9.49912      9.64711     11.08097         0.204375     -0.974091     -1.073159
O       2.02688      1.92087      0.54683        -0.258501      0.089037      0.110844
O       1.90188      1.67209     13.59528         0.192868      1.003598      0.349287
O       1.97297     13.38997      0.51417        -0.286365      0.072802      1.640275
O       1.92745     13.40091     13.66651        -0.186982      0.193056     -0.439018
O      13.47570      1.88455      0.56560         0.105587     -0.003501     -0.168181
O      13.46229      1.86274     13.58280         0.259124      0.533731     -0.190713
O      13.51323     13.53621      0.44416        -0.038995     -0.435423      0.987467
O      13.51116     13.42839     13.57942         0.221551     -0.019003     -0.184851
O       2.02855      1.88832      4.82857        -0.143855      0.432886     -0.064096
O       2.02591     13.55218      4.81047         0.006594     -0.507271      0.207603
O      13.43946      2.03577      4.88300        -0.000695     -0.167588      0.278910
O      13.41939     13.36168      4.91158         0.198722      0.102064      0.601199
O       2.02588      1.99038      9.25925         0.182231     -0.524246      0.759176
O       2.09763     13.53864      9.24297        -0.589649      0.024789      0.743814
O      13.47275      1.92786      9.19386         0.079779     -0.124532      1.037871
O      13.44885     13.52132      9.21884         0.163279      0.113390     -0.437940
O       1.92347      5.77883      0.51051        -0.150655      0.301777     -0.638777
O       1.90259      5.84594     13.55829        -0.351464     -0.491487      0.430544
O      13.42205      5.71971      0.42536         0.293873      0.172398     -0.021513
O      13.49346      5.83875     13.52748         0.065098     -0.202482      0.755991
O       1.81348      5.73195      4.93282        -0.018740     -0.089152     -0.282661
O      13.53922      5.55235      4.91677        -0.268211      0.429294      1.200809
O       1.87396      5.73588      9.19009         0.552746      0.338814      1.575480
O      13.48584      5.86287      9.13253        -0.348096     -0.249194      0.982645
O       1.88357      9.54910      0.53023        -0.164928     -0.115218      0.542991
O       1.84487      9.66508     13.71009        -0.077930      0.041614     -2.544408
O      13.32800      9.45956      0.51263         0.314401      0.352630     -0.322707
O      13.40615      9.74902     13.63773         0.053357     -0.482772     -0.815828
O       1.78343      9.61725      4.82713         0.415495      0.157647      0.288965
O      13.26395      9.72367      4.86914         0.144514     -0.146488      0.768583
O       1.81516      9.60866      9.21852         0.433664      0.171086      0.531947
O      13.45032      9.54793      9.20250         0.143955      0.449264      0.218005
O       5.70048      1.97424      0.46173         0.482997      0.072490      1.316817
O       5.68547      1.91731     13.65401         0.318900      0.352951      0.899828
O       5.78368     13.43838      0.45068         0.155181      0.039659      0.360228
O       5.75808     13.44591     13.79992         0.208027     -0.116937     -0.633850
O       5.84698      1.99363      4.88578         0.083629     -0.420771      0.351930
O       5.79035     13.44403      4.86855         0.039483     -0.009080     -0.453024
O       6.03217      1.80452      9.21756        -0.872611      0.267550      0.598817
O       5.76201     13.40002      9.25056        -0.212242      0.174482     -0.450282
O       5.91016      5.75088      0.55897        -0.174875      0.013967     -0.338111
O       5.75353      5.78641     13.54784        -0.008973     -0.033254      0.983319
O       5.85921      5.82867      4.90212        -0.151594     -0.342670     -0.186282
O       5.76525      5.81816      9.28652        -0.020029      0.067234     -0.695475
O       5.66888      9.53534      0.58924         0.083945      0.017859     -1.035122
O       5.79866      9.63680     13.58689        -0.274625     -0.108314      0.338176
O       5.63593      9.55218      4.94374         0.234955      0.129576     -0.141735
O       5.68054      9.56872      9.34449         0.068507      0.546968     -1.155370
O       9.75081      1.92503      0.42688        -0.706866      0.087948      1.355682
O       9.66730      1.82491     13.51539        -0.030365      0.159596      0.832757
O       9.61022     13.37918      0.43305         0.331066     -0.006388      1.413046
O       9.57999     13.41157     13.61242        -0.104936     -0.264915      0.620012
O       9.51902      1.75674      4.83995         0.477049      0.581656      0.725245
O       9.50748     13.30618      4.85885         0.196820      0.290962     -0.511906
O       9.65373      2.02750      9.21398        -0.528525     -0.384064      1.072431
O       9.74744     13.45641      9.22503        -0.502128     -0.408543     -0.314975
O       9.56690      5.77416      0.54815        -0.021584     -0.018522      0.539041
O       9.47056      5.73086     13.47705         0.662335     -0.180368      0.914767
O       9.52585      5.59648      4.85484         0.587774      0.810050      0.168591
O       9.59397      5.73500      9.32564        -0.232678      0.070827     -1.535073
O       9.48922      9.58437      0.42142         0.422736     -0.367936      1.159445
O       9.62711      9.62031     13.62940        -0.169263      0.296356     -0.524600
O       9.61831      9.72166      4.87237        -0.065758     -0.391347      0.852272
O       9.46388      9.70066      9.28069         0.095333     -0.113590      0.510261
O       3.85032      1.93242      2.73685         0.280908      0.216928     -0.183869
O       3.88663      2.01225     15.81737        -1.298143     -0.681061     -0.141973
O       3.85950     13.47434      2.60347        -0.133581     -0.125922      0.397663
O       3.86316     13.38035     15.89591         0.448930     -0.073429     -0.389205
O      15.30014      1.99292      2.71441         0.843285     -0.343246     -0.025226
O       0.05920      1.91384     15.80349         0.551462      0.262975     -0.226217
O      15.32708     13.32212      2.70253         0.870487      0.684140      0.070719
O       0.04832     13.42936     15.86506        -0.697806     -0.162833     -0.259152
O       3.92185      1.92204      7.04901        -0.374827      0.196993      0.214804
O       3.88664     13.47767      7.09570         0.279104     -0.237348     -0.097769
O       0.06628      1.99656      7.09108         0.237002     -0.816188     -0.410974
O       0.02602     13.57030      7.02343        -0.061326     -0.390442      0.114422
O       3.87248      1.91922     11.47906         0.140614     -0.172579     -0.149386
O       3.81422     13.36523     11.57187         0.003134      0.430840     -0.427464
O       0.01873      1.96665     11.43716        -0.343827      0.033848      0.020641
O      15.32479     13.41795     11.37552         0.343044      0.952705      0.225081
O       3.83022      5.70855      2.74270        -0.055134      0.675678     -0.194640
O       3.84751      5.74235     15.63867        -0.244132      0.384322      0.535186
O      15.32857      5.67509      2.68839        -0.339937      0.177337     -0.062761
O       0.02269      5.73228     15.82552        -0.494251     -0.376374     -0.296952
O       3.90329      5.70113      7.08118        -0.409623      0.209714      0.389511
O       0.01645      5.73455      7.19663        -0.047705     -0.274415     -0.372035
O       3.78025      5.86807     11.51175        -0.085947     -0.458192     -0.463695
O      15.31417      5.89104     11.34524         1.121224     -0.162089      0.233949
O       3.76365      9.53281      2.70399        -0.355294      0.386499      0.085260
O       3.79890      9.46735     15.72421         0.393062      0.196590      0.494038
O      15.21160      9.68365      2.74157         1.407034     -0.060993     -0.277576
O      15.31165      9.60369     15.74464        -0.031379     -0.301092      0.563132
O       3.77026      9.74726      7.09966         0.242616     -0.589422     -0.204437
O      15.35221      9.57864      7.06616         0.101525      0.247951     -0.048679
O       3.76092      9.72966     11.49008        -0.523287      0.009194     -0.049091
O      15.34284      9.50201     11.38149         0.051176      0.553754      0.352987
O       7.71973      1.97903      2.62823        -0.424335     -0.323956     -0.073480
O       7.77505      1.81439     15.70985        -0.239259      0.423220      0.186883
O       7.61233     13.38557      2.62520         1.820629      0.214168      0.126883
O       7.77861     13.39402     15.92444        -0.747168      0.351290     -0.571238
O       7.75679      1.84414      6.99870        -0.194978      0.105859      0.539996
O       7.73488     13.44779      7.14662        -0.603251     -0.320260     -0.492934
O       7.66251      1.99884     11.45888        -0.394923     -0.335887      0.096341
O       7.64608     13.49018     11.41633        -0.006788     -0.714509     -0.032062
O       7.67120      5.81541      2.74083         0.360806     -0.116055      0.026756
O       7.70399      5.80655     15.73986        -0.017954     -0.579800     -0.015767
O       7.70139      5.83975      6.97435         0.743120     -0.052448      0.619786
O       7.66750      5.69956     11.54600        -1.249600      0.219257     -0.651091
O       7.69805      9.42082      2.72307        -0.123691      1.017711     -0.347305
O       7.65152      9.53744     15.72245         0.770481     -0.142896      0.147256
O       7.71552      9.64454      7.07499        -1.826343     -0.064036      0.183142
O       7.53713      9.68016     11.47508         1.655136     -0.208602     -0.057497
O      11.47883      1.86859      2.68232        -0.087018      0.119259      0.388767
O      11.57080      1.86830     15.91378         0.380260      0.456063     -1.153172
O      11.56846     13.59297      2.67888        -1.082213     -1.019949     -0.336835
O      11.63377     13.40533     15.72315        -0.544922     -0.349598      0.085241
O      11.59554      1.96107      7.07348        -1.064915      0.101725     -0.214265
O      11.51622     13.39848      7.06842         0.642444     -0.081977     -0.115045
O      11.45718      1.76962     11.35667         1.098263      0.848467      0.191886
O      11.52062     13.46567     11.39327         0.194047      0.016622      0.154240
O      11.62308      5.70798      2.64774        -1.132486      0.289338      0.326118
O      11.50776      5.77677     15.68507         0.427394     -0.215437     -0.168169
O      11.52850      5.72036      7.10268        -0.715398      0.154740     -0.204075
O      11.46371      5.78118     11.40269         1.182409     -0.000387      0.176510
O      11.46735      9.59869      2.67852        -0.358155     -0.368136      0.044110
O      11.54594      9.58000     15.83941        -0.575017     -0.089623     -0.032205
O      11.48187      9.49470      7.11647         0.258312      0.566661     -0.016452
O      11.48055      9.64229     11.42795         0.067420     -0.031597     -0.071147
O       1.85108      3.92222      2.54917         0.433632     -1.048430      0.734067
O       2.04474      3.79852     15.75580        -0.944850      0.142084     -0.583825
O       1.85539      0.09855      2.75478         0.097295     -1.440982     -0.348547
O       1.91973     15.28425     15.93268         0.509944      1.272175     -0.658591
O      13.34944      3.76911      2.67412         0.390982      1.092532      0.030822
O      13.51292      3.83793     15.77197        -0.228612      0.177121     -0.415284
O      13.46291     15.34000      2.80062         0.138193     -0.170998     -0.332544
O      13.54911      0.06194     15.76956        -0.043944     -1.057375     -0.151765
O       1.96298      3.79732      7.13714         0.182577      0.169476     -0.367178
O       1.98609     15.34874      7.02533         0.074241      0.857190      0.381748
O      13.48209      3.83825      7.20548        -0.106013     -0.064368     -0.147096
O      13.43197      0.08273      7.02833         0.222639     -1.222867      0.024991
O       1.94769      3.89359     11.36921        -0.226513      0.049005      0.503772
O       1.89757      0.05217     11.44047         0.068376     -0.631049     -0.144466
O      13.42223      3.93693     11.36066         0.034951     -1.176176      0.309893
O      13.41093      0.06424     11.41245         0.569483     -0.396170      0.010929
O       1.70960      7.69281      2.72599         0.461210      0.089023     -0.101691
O       1.75117      7.63924     15.69500         0.734741     -0.172327      0.498888
O      13.46026      7.64285      2.75450        -0.138267      0.100678     -0.234730
O      13.44796      7.63983     15.80386         0.051126      0.319414     -0.191081
O       1.87564      7.64178      7.02754         0.461995      0.829351      0.052894
O      13.49356      7.63065      6.99006        -0.164739      0.575979     -0.013715
O       1.98494      7.78401     11.45200        -0.376414     -0.975628     -0.179812
O      13.35177      7.73623     11.26852         0.198245     -0.452909      0.665111
O       1.92426     11.51306      2.63407        -0.001063      0.012015      0.444737
O       1.90405     11.48224     15.85806         0.070311      0.052766      0.108962
O      13.38148     11.52258      2.61508        -0.377663      0.297411     -0.138281
O      13.52518     11.46405     15.82265        -0.278484      0.812946      0.075151
O       1.86652     11.59098      6.96140         0.146659     -0.368654      0.343879
O      13.49261     11.46934      7.09097        -0.232930      1.238318      0.134175
O       1.73107     11.63189     11.29257         0.583074     -1.546966      0.524521
O      13.41549     11.56182     11.29912         0.390724     -0.152110      0.372560
O       5.79386      3.82574      2.73778         0.069725      0.432658     -0.129431
O       5.74727      3.86493     15.81908         0.671391      0.820314     -0.115703
O       5.77602      0.01366      2.63453         0.124544      0.456623     -0.022518
O       5.72263      0.11103     15.84905         0.313503     -1.813853      0.139480
O       5.83533      3.84137      7.04699         0.350240     -0.635615      0.412348
O       5.77312      0.04157      7.05313         0.202661     -1.322533      0.132053
O       5.59650      3.82403     11.22080         0.360276     -0.144528      0.596531
O       5.69796     15.31199     11.54187         0.140602      0.318712     -0.401656
O       5.67863      7.75162      2.76311         0.372958     -1.576067      0.015272
O       5.77874      7.66027     15.90359        -0.176953     -0.207293     -0.340072
O       5.73019      7.69955      7.12133         0.023983      0.495182      0.229418
O       5.66424      7.70516     11.36942         0.164163      0.067748      0.430544
O       5.79262     11.51513      2.73776        -0.436830     -0.317059     -0.119652
O       5.84813     11.37586     15.87300        -0.551112      1.529109     -0.054500
O       5.76979     11.54569      6.98598         0.182823     -0.192249      0.391509
O       5.75587     11.52917     11.50546        -0.171187      1.040907     -0.006290
O       9.62395      3.88540      2.74045        -0.177592     -1.013976     -0.158363
O       9.66666      3.80003     15.80099        -0.476695      0.297232     -0.975868
O       9.60632      0.00598      2.63395        -0.699695     -0.465115     -0.076847
O       9.78354     15.28950     15.81298        -0.823453     -0.196339     -0.477481
O       9.55303      3.80534      7.02640         0.210331      0.475047     -0.055141
O       9.66979     15.31306      7.07486        -0.002844      0.219674     -0.243226
O       9.61726      3.85116     11.47652         0.129928     -1.042052      0.060156
O       9.56153     15.26249     11.45502        -0.274615      0.978055     -0.091852
O       9.61454      7.59081      2.77147         0.265723      1.156619     -0.048330
O       9.62751      7.63439     15.69311         0.000224     -0.060046      0.309085
O       9.58458      7.69757      7.13170        -0.076402     -0.468941     -0.455652
O       9.62207      7.69718     11.38475        -0.604729      0.899348      0.169169
O       9.61436     11.48002      2.58457        -0.278734      0.423773      0.075630
O       9.60518     11.41079     15.89352         0.242141      1.129981     -0.454325
O       9.66208     11.51675      7.04767        -0.207458     -0.121202      0.360260
O       9.68329     11.51296     11.37438        -0.901547      0.300417      0.300587
