  # total energy = -7882.84111894 
CRSYTAL
PRIMVEC
    15.3600000000000000    0.0000000000000000    0.0000000000000000
     0.0000000000000000   15.3600000000000000    0.0000000000000000
     0.0000000000000000    0.0000000000000000    17.440000000000000
PRESSURE
0.741219 0.636079 1.45855 0.215544 0.275962 -0.047242
PRIMCOORD
320 1
Pb       3.75166      3.85674      4.24439         0.465562      0.013702     -0.186555
Pb       3.78474      3.86043     17.33584         0.107610      0.567812      0.469215
Pb       3.82731      0.01755      4.23607        -0.131773      0.143138     -0.301749
Pb       3.88644      0.08608      0.04062        -0.247972     -0.598508     -0.126834
Pb      15.25014      3.85165      4.30980         0.098145      0.013526      0.183630
Pb      15.25734      3.82948     17.41435         0.431308      0.082039     -0.090740
Pb      15.22160     15.27143      4.29594         0.812887      0.153780     -0.155603
Pb      15.32604     15.31078      0.03387         0.510854     -0.056017     -0.264646
Pb       3.85496      3.81718      8.69035        -0.027014      0.274677     -0.601416
Pb       3.80613     15.27683      8.78858         0.010004      0.077755     -0.748295
Pb       0.08690      3.67314      8.67349        -0.328676      0.518668      0.008077
Pb       0.08933     15.35156      8.62853        -0.325323      0.246136     -0.608274
Pb       3.71833      3.89997     13.07364         0.606351      0.300078     -0.333933
Pb       3.87178     15.25841     13.22123         0.417965     -0.104100     -0.767015
Pb      15.26592      3.83144     13.02855        -0.261530      0.008925     -0.771106
Pb       0.01139      0.04111     13.00495         0.053289      0.335338      0.057065
Pb       3.82280      7.63066      4.26621        -0.104888     -0.205317      0.253724
Pb       3.78909      7.73661     17.43294         0.146803     -0.396366     -0.633109
Pb      15.27600      7.54056      4.35540        -0.553844      0.416552     -0.056921
Pb       0.02009      7.72173     17.36627         0.096820     -0.312560     -0.075833
Pb       3.90271      7.55369      8.76989        -0.205117      0.007527     -1.211952
Pb       0.01612      7.63428      8.75027        -0.219972      0.392306     -1.026082
Pb       3.78203      7.76800     13.06135         0.131348     -0.537332     -0.183897
Pb       0.04521      7.69621     12.93141        -0.353163     -0.060975      0.456387
Pb       3.76746     11.45660      4.28408         0.644866      0.209855     -0.176754
Pb       3.83957     11.42154     17.43650        -0.275491      0.623419     -0.324435
Pb      15.34571     11.49039      4.28312        -0.480675      0.095105      0.143131
Pb       0.02739     11.43986      0.00913         0.247925      0.493346     -0.484432
Pb       3.71772     11.52111      8.68373         0.122143      0.171279     -0.592559
Pb       0.02203     11.46427      8.63557        -0.041885      0.105429     -0.493874
Pb       3.77401     11.54888     13.05208        -0.246781      0.447090      0.220405
Pb      15.21641     11.43944     13.13538         0.364405      0.282068     -0.555080
Pb       7.62933      3.86144      4.38636         0.174922     -0.240160     -0.149900
Pb       7.66232      3.87777     17.28753         0.134990     -0.003594      0.151469
Pb       7.63891      0.07652      4.19637         0.634622     -0.247675      0.218758
Pb       7.75907     15.32734      0.00383         0.180408      0.005915     -0.532824
Pb       7.69540      3.67496      8.76107         0.939478      0.327252     -0.412367
Pb       7.63260     15.27125      8.64640         0.560595      0.203042     -0.192963
Pb       7.55614      3.72156     13.14790         0.452596      0.285958     -0.660987
Pb       7.63325     15.19377     13.17721        -0.242774      0.236265     -0.761734
Pb       7.57621      7.70255      4.32232         0.030310     -0.156783      0.169073
Pb       7.79346      7.55813     17.40465        -0.336898      0.175436     -0.383769
Pb       7.53791      7.68627      8.68274         0.720210     -0.143361     -0.199526
Pb       7.59161      7.60918     12.99438        -0.047161      0.093358     -0.100831
Pb       7.67797     11.52088      4.30919        -0.397279      0.188440     -0.242753
Pb       7.73517     11.47919      0.03011        -0.180207      0.067779     -0.620624
Pb       7.65119     11.38413      8.72992        -0.155285      0.364140     -0.502095
Pb       7.59681     11.42094     13.11025        -0.056271      0.286929     -0.137424
Pb      11.48326      3.84998      4.41078         0.237378      0.218305     -0.653148
Pb      11.40392      3.81516     17.30868         0.425860     -0.410371      0.171449
Pb      11.38742      0.10750      4.26970         0.200034     -0.535708     -0.070628
Pb      11.67410      0.00575     17.32746        -0.544839      0.021706      0.172285
Pb      11.57818      3.78276      8.75184        -0.400624     -0.405712     -0.618619
Pb      11.48439     15.20228      8.63102         0.267807      1.081691      0.038097
Pb      11.46400      3.87819     13.03202         0.028201     -0.098101     -0.954774
Pb      11.49639     15.30174     13.00577        -0.121069      0.112284     -0.282655
Pb      11.45955      7.75241      4.34831         0.706179      0.093130     -0.669197
Pb      11.51203      7.59766     17.39617        -0.189196      0.044592     -0.265956
Pb      11.41996      7.57461      8.71951        -0.147088      0.703141     -0.461972
Pb      11.59648      7.74584     12.86005        -0.154676     -0.247334      0.178358
Pb      11.43567     11.51888      4.45090         0.487313     -0.171392     -0.710875
Pb      11.62153     11.54890      0.02225        -0.179695      0.160394     -0.887359
Pb      11.42260     11.53081      8.76043         0.249843     -0.394590     -0.383661
Pb      11.39042     11.47509     13.00050         0.601860      0.347037     -0.172616
Ti       1.86203      1.97675      2.31522         0.493864     -0.659132      1.595041
Ti       1.95024      1.87756     15.34252         0.156266     -0.384883      0.960027
Ti       1.98240     13.40886      2.31976        -0.129654      1.051713     -0.957490
Ti       1.88435     13.43174     15.43747         1.150836     -0.599497      1.177679
Ti      13.40651      1.93747      2.33881         0.135217     -0.326453     -0.234873
Ti      13.57883      1.95994     15.36058        -1.763310     -0.496121      0.196490
Ti      13.46843     13.42449      2.24140        -0.372100     -0.080917      0.589685
Ti      13.51612     13.45684     15.30910        -0.597748     -0.086822      2.201258
Ti       2.07175      1.96094      6.57254        -0.758170     -0.507227      0.485285
Ti       2.03683     13.52121      6.57562        -1.250073     -0.968039      0.159277
Ti      13.50033      1.93322      6.65839        -0.425134      0.183131      2.700445
Ti      13.48644     13.45409      6.67274        -0.013539      0.232171      1.619990
Ti       2.09842      1.92306     11.05128        -1.682759     -0.081871      0.294225
Ti       1.79454     13.47939     11.02875         2.117097     -0.664189     -0.094962
Ti      13.46757      1.90671     10.97864        -0.229575      0.620720     -0.646018
Ti      13.51514     13.57304     10.94770        -1.737978     -1.492758      0.172282
Ti       1.84399      5.78165      2.25803         1.022807     -0.192530     -0.811722
Ti       1.83273      5.71513     15.33442         1.630559      0.850904      0.866837
Ti      13.47196      5.67377      2.17805        -1.129661      1.358133      2.569915
Ti      13.44138      5.82152     15.33536         0.359088     -0.628924     -0.279887
Ti       1.84899      5.75973      6.70371         0.708552      0.374010      1.446628
Ti      13.42558      5.77591      6.74420         0.565414     -0.619052      0.183419
Ti       1.86684      5.78632     10.98769         0.893755      0.105059     -0.064827
Ti      13.46145      5.80144     10.86281        -0.937570      0.055178      2.228108
Ti       1.78542      9.58693      2.33081         0.254733     -0.211874     -0.184940
Ti       1.86559      9.55436     15.39036         0.189053      0.448806      1.577223
Ti      13.36749      9.61618      2.23008        -0.239662     -0.511677      4.252334
Ti      13.36492      9.57718     15.39145         0.540836      0.672185      0.746849
Ti       1.87572      9.61397      6.59399        -0.646341     -0.471984      1.211887
Ti      13.35582      9.67783      6.68672         0.329782     -1.609291      0.347726
Ti       1.86448      9.61705     10.97788         0.137951      0.962028      0.553003
Ti      13.46176      9.68150     10.95333        -0.589248     -0.328715     -0.428514
Ti       5.82769      1.95765      2.28189        -0.943139      0.280247     -0.409496
Ti       5.76181      1.97735     15.49826         0.131107     -1.184846     -1.616949
Ti       5.85857     13.47149      2.24701        -1.666893     -0.973480      0.041127
Ti       5.75613     13.39619     15.53653        -0.291343      0.104683      1.163142
Ti       5.85840      1.87122      6.68687        -0.352357      0.342141     -0.977379
Ti       5.78902     13.45691      6.62226         0.028930     -0.855771      0.204183
Ti       5.81314      1.91610     10.99452         0.222954     -0.459181      0.804281
Ti       5.75377     13.42982     10.96642        -0.305851      0.423255      1.694334
Ti       5.86061      5.73715      2.30417        -2.011238      0.269561      1.182620
Ti       5.74941      5.84129     15.35458        -0.835515     -0.337045      0.595619
Ti       5.88756      5.64155      6.66071        -1.276742      1.818685      0.161256
Ti       5.73413      5.75967     11.01200         0.039331      0.098137      2.312937
Ti       5.70765      9.57515      2.28274         0.036373      0.459641      1.219896
Ti       5.77507      9.55731     15.37517        -0.310160      0.173496      1.103588
Ti       5.65201      9.60686      6.70086         0.211471      0.102720      1.418667
Ti       5.63154      9.70531     11.08733         0.549747     -1.566635      0.632412
Ti       9.63382      1.96787      2.20504         0.194332     -0.746146      0.785427
Ti       9.64018      1.81233     15.29700         0.343012     -0.350575      1.773647
Ti       9.71234     13.38342      2.23494        -0.554826      1.082105      0.626840
Ti       9.63286     13.34861     15.38494         0.582789      0.382731      1.698535
Ti       9.67829      1.90613      6.62235        -0.356679      0.148521      0.366310
Ti       9.61947     13.40867      6.63164        -0.633291      0.395926      0.186328
Ti       9.59236      1.90377     11.05722         0.160482      0.016091     -0.750716
Ti       9.63556     13.43416     10.96916        -0.523571      0.511088      1.837152
Ti       9.62008      5.74551      2.36819         0.682344     -0.304139     -0.501101
Ti       9.64002      5.67690     15.24114        -0.504132      1.141778      1.503399
Ti       9.63456      5.78820      6.59415        -0.840529     -0.642380      1.769006
Ti       9.59122      5.79149     11.03401        -0.875516     -1.130138      0.018606
Ti       9.55569      9.57105      2.20821         0.261528     -0.209153      0.980536
Ti       9.59328      9.55749     15.40586        -0.522529     -0.449890      0.438397
Ti       9.51784      9.62665      6.70809         0.798512     -0.906763      1.916883
Ti       9.51214      9.62792     11.10815        -0.046619     -0.183804     -1.714970
O       1.98739      1.89510      0.62681        -0.235348      0.195290     -2.031752
O       1.94360      1.65103     13.58951         0.019742      1.090334      0.553429
O       1.95364     13.34595      0.53417        -0.326480      0.333301      0.782855
O       1.97284     13.34765     13.69041        -0.450334      0.352571     -0.625365
O      13.52903      1.91438      0.58746        -0.174415      0.092014     -0.407743
O      13.47120      1.85612     13.61440         0.201999      0.543458     -0.555067
O      13.46961     13.53963      0.47366         0.119845     -0.335256      0.294372
O      13.52675     13.41966     13.59497         0.007357     -0.123719     -0.952266
O       2.05657      1.87443      4.79457        -0.221180      0.563279      0.998874
O       2.00841     13.55588      4.81012        -0.081990     -0.338052     -0.084288
O      13.39997      2.03984      4.96985         0.111201     -0.023721     -2.460672
O      13.39702     13.34036      4.97876         0.180742      0.034518     -1.642450
O       2.01375      1.98691      9.29454         0.268500     -0.434038     -0.088240
O       2.11427     13.49532      9.25690        -0.781264      0.229432      0.444652
O      13.47196      1.89835      9.19120         0.095413      0.001327      1.270713
O      13.44945     13.53162      9.19100         0.142359      0.062327      0.231695
O       1.92583      5.77612      0.48176        -0.226525      0.293590      0.313011
O       1.90353      5.83396     13.59481        -0.401259     -0.364633     -1.054562
O      13.42768      5.72854      0.47750         0.173367     -0.021203     -1.823747
O      13.48262      5.85160     13.56321        -0.022852     -0.267821      0.517576
O       1.84194      5.73996      4.98624        -0.234572     -0.227879     -1.489667
O      13.60153      5.57804      4.98314        -0.482503      0.172901     -0.279819
O       1.89404      5.79417      9.19746         0.397830      0.053489      1.092903
O      13.46561      5.87837      9.16259        -0.356573     -0.307225     -1.000717
O       1.82618      9.57244      0.52024         0.067620     -0.173049      0.894992
O       1.82921      9.67783     13.70149        -0.088117      0.031725     -2.223935
O      13.30202      9.49679      0.57794         0.193584      0.012024     -3.431135
O      13.42342      9.75502     13.64671        -0.125968     -0.416626     -0.668402
O       1.75523      9.58518      4.86962         0.410399      0.245642     -1.172816
O      13.25613      9.70119      4.92442         0.120228      0.099038     -0.110462
O       1.78088      9.60803      9.25497         0.513496      0.044890     -1.079600
O      13.42306      9.50045      9.20976         0.120048      0.630115      0.173155
O       5.73959      1.97269      0.49284         0.381335      0.094838      0.512600
O       5.68955      1.86276     13.66151         0.356113      0.565491      1.160203
O       5.79557     13.40299      0.47080         0.346566      0.051403      0.250343
O       5.73175     13.46710     13.79388         0.259256     -0.054629     -0.789928
O       5.80930      2.00943      4.89637         0.221861     -0.447495      0.381967
O       5.80880     13.45931      4.87264        -0.000097     -0.023991     -0.133296
O       6.03204      1.79658      9.23888        -0.773876      0.162323      0.014738
O       5.72868     13.38757      9.22204        -0.188197      0.256709     -0.003859
O       5.91495      5.74457      0.59602        -0.188868      0.018063     -1.320672
O       5.75845      5.77234     13.60886         0.043476      0.065893     -0.593363
O       5.85635      5.82109      4.90195        -0.127384     -0.319558     -0.419544
O       5.83292      5.83889      9.31257        -0.286904      0.010507     -1.736204
O       5.64426      9.54658      0.56256         0.155320      0.052451     -0.529939
O       5.81112      9.62634     13.62628        -0.284144     -0.140274     -0.634173
O       5.64140      9.55415      5.01273         0.254695     -0.112055     -2.267209
O       5.71065      9.57595      9.35926        -0.170277      0.490314     -1.032446
O       9.82125      1.88521      0.47786        -0.730222      0.409885     -0.565856
O       9.61779      1.86284     13.55258         0.120786      0.024494     -0.027796
O       9.65526     13.38709      0.48951         0.007497     -0.099238     -0.041882
O       9.60684     13.42081     13.65227        -0.153871     -0.136254     -0.593539
O       9.53956      1.76700      4.84284         0.448486      0.709644      0.531071
O       9.51550     13.34722      4.86420         0.271427      0.078276      0.108539
O       9.62948      1.98632      9.25890        -0.510540     -0.169980      0.342729
O       9.73121     13.46218      9.25691        -0.355656     -0.273171     -1.509497
O       9.56364      5.80802      0.56822         0.140153     -0.308454      0.414951
O       9.49936      5.66774     13.53983         0.464191     -0.061679     -0.830377
O       9.54728      5.62708      4.85255         0.450058      0.514368     -0.749975
O       9.54782      5.73393      9.27746         0.065997      0.054822      0.347883
O       9.49282      9.54356      0.45194         0.368163     -0.208210      0.211085
O       9.60635      9.63194     13.65962        -0.009213      0.208977     -1.191925
O       9.63634      9.69651      5.01370        -0.088668     -0.221012     -2.082785
O       9.49913      9.69808      9.30113         0.103296     -0.153939      0.749440
O       3.86742      1.95778      2.74026         0.331009      0.113274     -0.268279
O       3.87866      2.00004     15.86293        -0.883856     -0.766018     -0.280825
O       3.84405     13.44939      2.60401         0.528043      0.029600      0.462884
O       3.90320     13.41659     15.93126        -0.500442     -0.163678     -0.348062
O      15.29608      1.97375      2.72731         0.249263     -0.222065      0.129293
O       0.04292      1.91848     15.78963         1.274100      0.294256     -0.022889
O      15.31982     13.32833      2.70895         0.523485      0.859005      0.138381
O       0.05618     13.44904     15.88096        -1.139046     -0.064177     -0.371435
O       3.91419      1.91653      7.09339        -0.156075      0.240085      0.068174
O       3.84040     13.44711      7.11180         0.904206      0.021178     -0.079261
O       0.08602      1.98501      7.08080         0.354587     -0.716859     -0.427600
O       0.00007     13.57893      7.06956         0.686941     -0.513791     -0.122448
O       3.87140      1.93584     11.47646         0.315803     -0.396998     -0.169926
O       3.74732     13.40719     11.59138         0.754572      0.161193     -0.617827
O       0.01600      1.95622     11.43781        -0.296867      0.027426      0.126225
O      15.30439     13.41671     11.42290         0.317145      0.711339      0.020207
O       3.79461      5.75369      2.73214        -0.069186      0.433526     -0.097476
O       3.82472      5.76867     15.67535         0.158105      0.408779      0.475431
O      15.29189      5.67279      2.69164         0.632624      0.209852      0.100997
O       0.05355      5.75098     15.83897        -1.504446     -0.431827     -0.147570
O       3.91017      5.71790      7.08046        -0.323623      0.070193      0.463790
O      15.33727      5.71627      7.22719         0.723165     -0.079267     -0.401357
O       3.79185      5.91763     11.50621        -0.179818     -0.745645     -0.448904
O      15.27795      5.88664     11.37263         1.536062     -0.409238     -0.067025
O       3.76155      9.55962      2.76536        -0.416087      0.034808     -0.307079
O       3.78759      9.52037     15.77578         0.119678      0.148931      0.201212
O      15.22034      9.71127      2.75059         1.531674     -0.261372     -0.411269
O      15.30027      9.57404     15.78458        -0.218079      0.142703      0.337049
O       3.75246      9.72822      7.06285         0.158226     -0.519414      0.187272
O      15.32190      9.57350      7.06964         0.348147      0.303424      0.121941
O       3.74728      9.68262     11.50476         0.290149      0.115268     -0.150048
O       0.00829      9.49884     11.35898        -0.971070      0.673613      0.462714
O       7.78658      1.95528      2.59869        -2.130941     -0.132941      0.106302
O       7.73238      1.83384     15.74878         0.181351      0.346366      0.080808
O       7.63029     13.38858      2.66614         1.503000      0.111753     -0.006592
O       7.75750     13.38949     15.91259        -0.242076      0.326400     -0.325439
O       7.73840      1.85666      7.01664        -0.117752     -0.026131      0.381502
O       7.68636     13.40933      7.14220         0.352362      0.107609     -0.308276
O       7.71699      2.03365     11.48254        -1.662243     -0.487067      0.037842
O       7.60772     13.49379     11.45128         0.283013     -0.501365     -0.241659
O       7.64108      5.80212      2.71322         1.211919      0.010443      0.301193
O       7.70762      5.80622     15.75574         0.261547     -0.533714     -0.048102
O       7.71205      5.84094      6.99686         0.214826     -0.134792      0.304442
O       7.64416      5.70398     11.55389        -0.494760      0.063441     -0.440017
O       7.69869      9.45574      2.71870        -0.298594      0.746128     -0.219002
O       7.62113      9.54336     15.72930         1.183511     -0.116117      0.347025
O       7.66377      9.63887      7.13486        -0.486302     -0.146080     -0.050207
O       7.55651      9.68932     11.46494         1.333219     -0.338530      0.175466
O      11.45903      1.90462      2.69540         1.310768      0.101012      0.582679
O      11.58340      1.85554     15.90139         0.134340      0.808472     -1.099323
O      11.53306     13.56100      2.69963        -0.158894     -0.842784     -0.165095
O      11.60815     13.42890     15.77304         0.023585     -0.381521     -0.226232
O      11.57557      1.92189      7.06810        -0.821199      0.373874     -0.186684
O      11.54165     13.40632      7.10447        -0.412776     -0.279886     -0.246165
O      11.43810      1.78420     11.32999         1.855340      0.821682      0.642402
O      11.49568     13.46820     11.41915         0.779088     -0.054301      0.070158
O      11.63838      5.72839      2.67139        -1.953824      0.066671      0.382077
O      11.54703      5.79855     15.72217        -0.226801     -0.661454     -0.181155
O      11.48317      5.69908      7.13821         0.070169      0.154887     -0.335911
O      11.46585      5.74763     11.43154         0.990221      0.185052     -0.106939
O      11.45753      9.59931      2.71636        -0.523573     -0.125973     -0.017031
O      11.49309      9.58538     15.83776         0.505316     -0.165458      0.019578
O      11.48352      9.49580      7.09282         0.030608      0.597838      0.368465
O      11.46823      9.64980     11.39149         0.534930     -0.177908      0.281508
O       1.87611      3.92700      2.52643         0.111254     -0.898349      0.888530
O       2.09284      3.83575     15.74551        -1.326868     -0.926477     -0.581346
O       1.90242      0.06266      2.71879        -0.273281     -0.784440     -0.081781
O       1.92711     15.30856     15.95506         0.364668      1.341137     -0.679370
O      13.37200      3.82529      2.67723         0.218797     -0.492871      0.236879
O      13.54277      3.85221     15.71258        -0.324762      0.315549      0.069677
O      13.43695     15.32817      2.81832         0.080153      0.513137     -0.367083
O      13.54752      0.04886     15.74497         0.028624     -0.848795      0.035776
O       1.96926      3.81755      7.18957         0.215149     -0.284813     -0.651005
O       2.01028     15.33604      7.04215        -0.068688      1.583553      0.328185
O      13.47950      3.84986      7.19865        -0.239850     -0.598956      0.014995
O      13.43979      0.04026      7.05735         0.193111     -0.273867     -0.191807
O       1.98165      3.90480     11.41654        -0.459987     -0.045944      0.216037
O       1.88664      0.03470     11.46802         0.020740     -0.508716     -0.423966
O      13.46494      3.90057     11.39317        -0.325453     -0.618333      0.027632
O      13.40588      0.04765     11.43794         0.440842     -0.220548     -0.023307
O       1.68100      7.68473      2.72795         0.632885      0.255264     -0.190871
O       1.76118      7.66050     15.72009         0.688692      0.079652      0.333819
O      13.40647      7.68516      2.77575         0.190608     -0.131439     -0.243561
O      13.44909      7.65179     15.80934        -0.058373      0.422488     -0.057821
O       1.88586      7.66769      7.00501         0.270907      0.284600      0.295657
O      13.46585      7.60531      6.98226        -0.239400      0.989306      0.169427
O       1.97345      7.75174     11.46537        -0.504593     -0.782544     -0.175380
O      13.41714      7.73049     11.31206        -0.421082     -0.211063      0.442851
O       1.96747     11.54447      2.62575        -0.431904     -1.264043      0.652696
O       1.86083     11.54029     15.86603         0.236729     -0.785581     -0.002427
O      13.43009     11.54846      2.63850        -0.820761      0.030321     -0.120813
O      13.48722     11.49304     15.89110        -0.136166      0.179126     -0.356717
O       1.90590     11.60567      6.97651        -0.357558     -0.513326      0.356936
O      13.48915     11.49002      7.11886        -0.305210      0.835176      0.141544
O       1.77756     11.57345     11.27981         0.235364     -0.512689      0.530683
O      13.41921     11.58861     11.30786         0.238769     -0.571884      0.208541
O       5.78636      3.84837      2.74764         0.118672     -0.127576     -0.125762
O       5.74082      3.90754     15.79171         0.668926     -0.375939      0.084440
O       5.76516     15.35022      2.65486         0.243029      0.797754     -0.241175
O       5.74126      0.05153     15.88031         0.333833     -0.479564      0.060010
O       5.88099      3.83975      7.04155        -0.074475     -1.038842      0.437345
O       5.78721      0.00258      7.06187        -0.035871     -0.358419      0.160202
O       5.53407      3.81718     11.18381         0.744606      0.124545      0.751063
O       5.71736     15.35357     11.54464         0.025963     -0.142220     -0.571616
O       5.65763      7.74043      2.75122         0.488340     -1.111327      0.078670
O       5.72771      7.66204     15.92358         0.112700      0.076298     -0.374512
O       5.76196      7.71638      7.11792        -0.288923     -0.315549      0.345487
O       5.68855      7.69890     11.42091         0.275201      0.372960      0.346893
O       5.76450     11.48340      2.77051        -0.150269     -0.159986     -0.239531
O       5.82332     11.41371     15.85002        -0.346543      0.824627      0.041923
O       5.78843     11.53250      6.97380        -0.171656      0.222003      0.562913
O       5.76702     11.53759     11.56095        -0.493778      0.944514     -0.384334
O       9.58890      3.82742      2.74244         0.154534      0.746144     -0.111076
O       9.62724      3.76172     15.75325         0.000875      0.501461     -0.423261
O       9.57786      0.01503      2.63680        -0.231004     -0.655076      0.107435
O       9.77256     15.28552     15.86732        -1.022485      0.353501     -0.731382
O       9.52745      3.83292      7.06507         0.326437     -0.158675     -0.293836
O       9.64920     15.33793      7.03054        -0.051208     -0.341846      0.044450
O       9.59270      3.82775     11.45428         0.357459      0.048979      0.305936
O       9.59622     15.28708     11.45267        -0.576045      0.497950      0.151344
O       9.57952      7.60653      2.77337         0.387283      0.743350     -0.088555
O       9.64517      7.61604     15.66771        -0.101979      0.021582      0.428167
O       9.57532      7.66245      7.17376         0.080500      0.047049     -0.608855
O       9.60717      7.69110     11.38676        -0.387373      0.390909      0.348785
O       9.59229     11.50261      2.60084        -0.161382     -0.464866      0.164526
O       9.64056     11.43852     15.85649        -0.108437      0.711795     -0.091487
O       9.60322     11.51044      7.07645         0.218784      0.441037      0.365557
O       9.65050     11.52590     11.36364        -0.607742      0.225654      0.538078
