  # total energy = -7882.64699616 
CRSYTAL
PRIMVEC
    15.3600000000000000    0.0000000000000000    0.0000000000000000
     0.0000000000000000   15.3600000000000000    0.0000000000000000
     0.0000000000000000    0.0000000000000000    17.440000000000000
PRESSURE
3.35763 3.1906 -0.058052 -0.295935 -0.646987 0.054742
PRIMCOORD
320 1
Pb       3.80036      3.85491      4.38490         0.151058     -0.261211      0.233601
Pb       3.97677      3.80744     17.33199        -0.834050     -0.404983      0.863699
Pb       3.81586     15.33624      4.33127        -0.103373      0.003891      0.719999
Pb       3.91405      0.03573     17.39426        -0.635210     -0.236436      0.074196
Pb      15.31460      3.83148      4.40443         0.371036     -0.165662     -0.034686
Pb       0.09863      3.84298      0.03732        -0.133777     -0.095485     -0.001415
Pb       0.03124     15.30499      4.31124        -0.241214      0.078277      0.723524
Pb      15.12690     15.31687     17.42817         0.649133     -0.147599      0.223491
Pb       3.77317      3.94209      8.53933         0.002158     -0.264985      1.109809
Pb       3.82324     15.32753      8.81766         0.031286      0.302680     -0.323778
Pb      15.07363      3.89182      8.59399         1.146736     -0.179648      0.908981
Pb      15.28378      0.15970      8.66045         0.174687     -0.511941      0.600699
Pb       3.88723      3.76176     12.93453        -0.566819      0.376940      0.773797
Pb       3.77357     15.22790     12.96652        -0.148729      0.415473      0.177311
Pb      15.31784      3.69955     13.09445         0.554833      0.242184      0.302669
Pb       0.00308      0.03581     12.90731         0.045746      0.037531      0.601120
Pb       3.92038      7.70135      4.25489        -0.230086     -0.542189      0.380590
Pb       3.72034      7.66518      0.02902         0.023484     -0.481286      0.321144
Pb       0.17724      7.68116      4.29256        -0.620720      0.116678      0.160012
Pb      15.34297      7.80483     17.31825        -0.703916     -0.925475      0.917538
Pb       3.95915      7.61003      8.68961        -0.401467      0.050111      0.534998
Pb      15.33479      7.62619      8.66415         0.119564      0.270386      0.477492
Pb       3.82669      7.65385     13.06572        -0.041076     -0.494053      0.028353
Pb       0.06344      7.69853     13.07333        -0.481788     -0.279879      0.574974
Pb       3.66758     11.47263      4.30027         0.442424      0.358535      0.249764
Pb       3.99700     11.31568     17.30298        -0.243442      0.996553      1.038763
Pb       0.15408     11.64677      4.15556        -0.971504     -0.553011      1.194060
Pb      15.29329     11.45602     17.31608        -0.458330      0.466227      0.735628
Pb       3.78507     11.60083      8.70483         0.070534     -0.230768      0.303014
Pb       0.00054     11.36699      8.63849        -0.403472      0.472059      0.881957
Pb       3.97038     11.51467     12.97328        -0.639378     -0.104046      0.652112
Pb       0.09832     11.47695     13.12480        -0.350311     -0.129725     -0.006025
Pb       7.68223      3.72135      4.38592         0.059217      0.543643      0.313296
Pb       7.72762      3.91756     17.24336        -0.397476     -0.717811      1.502294
Pb       7.67353      0.06326      4.30265         0.247710     -0.817470      0.771143
Pb       7.42958     15.34515     17.30791         0.731357     -0.313821      0.876955
Pb       7.65519      3.81683      8.67307         0.197312     -0.138172      0.289516
Pb       7.69165     15.26219      8.59988        -0.211236      0.359701      0.496087
Pb       7.81298      3.95777     13.23581        -0.499085     -0.376749     -0.562080
Pb       7.72114      0.11879     13.00982        -0.727798     -0.439001      0.555110
Pb       7.54216      7.55027      4.25728         0.737103      0.062198      0.808270
Pb       7.65300      7.63345     17.42062        -0.156007      0.364189      0.369131
Pb       7.59632      7.84194      8.60800         0.332486     -0.519296      0.434847
Pb       7.62823      7.61849     12.98403         0.131001     -0.008381      0.067905
Pb       7.66126     11.40965      4.33788         0.104997      0.302200      0.359830
Pb       7.58110     11.63743     17.28943        -0.113520     -0.419869      1.035903
Pb       7.73483     11.47157      8.68062        -0.653987      0.268448      0.060845
Pb       7.87310     11.64872     13.06372        -1.072676     -0.390108      0.350449
Pb      11.59042      3.74960      4.35333        -0.418036      0.381874      0.005678
Pb      11.52560      3.82779      0.01532         0.288916     -0.158818      0.091843
Pb      11.56538      0.02985      4.22285        -0.096768     -0.645759      0.711555
Pb      11.43435     15.31393     17.18987         0.160560     -0.318581      1.886467
Pb      11.58514      4.03960      8.65207        -0.544914     -1.006959      0.665019
Pb      11.49397     15.27206      8.61925        -0.249622      0.461525      0.853650
Pb      11.53131      3.72022     13.22510         0.225122      0.122757     -0.018169
Pb      11.40885     15.33417     13.01234         0.610984     -0.032505      0.487977
Pb      11.58434      7.69708      4.20497        -0.210017     -0.269692      0.604856
Pb      11.41627      7.58346     17.43449         0.615091      0.499102     -0.012239
Pb      11.55973      7.66606      8.63433        -0.172121      0.634019      0.484330
Pb      11.41940      7.71180     12.97701         0.127780     -0.064126      1.023228
Pb      11.56648     11.38892      4.38563        -0.059481      0.629696     -0.037305
Pb      11.39004     11.48906     17.34579         0.362115      0.228082      0.438783
Pb      11.48648     11.51164      8.82081         0.421288     -0.048972     -0.123256
Pb      11.48090     11.46795     12.93264         0.111140      0.080060      1.036081
Ti       1.99086      1.86175      2.39286        -0.639662      0.886216     -1.238007
Ti       1.97150      1.86055     15.45783        -1.040557     -0.126590     -1.643148
Ti       1.91220     13.49641      2.21616        -0.023506     -0.855679     -1.554561
Ti       1.88126     13.42682     15.49845        -0.341638      0.576249      0.652806
Ti      13.53684      1.91195      2.43237        -0.475762     -0.495068     -0.953416
Ti      13.51276      1.88223     15.49567        -0.292516      0.325808      0.239133
Ti      13.39585     13.38798      2.38973        -0.541411      0.137780     -1.366188
Ti      13.41109     13.36641     15.38155        -0.919340      0.456210     -0.537699
Ti       1.90609      1.95919      6.81629        -0.097405     -0.674410     -0.304036
Ti       1.79694     13.43895      6.87463         0.087253      0.375768     -1.386659
Ti      13.35472      1.89064      6.73886         1.313889     -0.005435     -0.555726
Ti      13.35518     13.41410      6.79849         0.825268     -0.222892     -0.972704
Ti       1.99147      1.97645     11.00374        -1.605915     -0.543323     -1.030616
Ti       1.83521     13.36443     11.06548         0.273785      0.434901     -0.927266
Ti      13.39594      1.88487     11.12782         0.256686     -0.432935      0.701974
Ti      13.39434     13.36613     11.17383        -0.102837      0.338530     -1.262025
Ti       1.90149      5.66698      2.42037        -0.496812      0.031727     -1.513943
Ti       1.85063      5.70215     15.43821        -0.322438     -0.325562     -0.714229
Ti      13.42767      5.74610      2.38580        -0.017168      0.015104     -0.649204
Ti      13.41086      5.69098     15.47771         0.095851      0.373648     -0.508191
Ti       1.81884      5.77881      6.72020         0.419407     -0.198467     -1.217837
Ti      13.36589      5.84952      6.61637         0.275345     -0.478275     -1.345998
Ti       1.86711      5.76175     11.11334        -0.246098     -1.013549     -1.477598
Ti      13.40693      5.65742     11.31331         0.416290      0.298648     -0.010147
Ti       1.90980      9.56399      2.33020        -0.483683     -0.350723     -1.139509
Ti       1.85818      9.59522     15.50740        -0.427997     -0.102489     -2.020591
Ti      13.42758      9.56334      2.38410         0.724792      0.184007     -0.783567
Ti      13.30219      9.55821     15.41328        -0.408536     -0.497978     -0.723924
Ti       1.96449      9.57088      6.73080        -1.120634      0.214551     -1.317659
Ti      13.44040      9.66059      6.69424        -0.487141     -0.452233     -1.538331
Ti       1.91208      9.56255     11.09796        -1.055794      0.193550     -1.542198
Ti      13.37367      9.50287     11.19514         0.645443      0.608308     -0.840222
Ti       5.79017      1.81519      2.45249        -0.320213      1.309459     -1.571976
Ti       5.78060      1.88845     15.31725        -0.757555     -0.271785      1.438134
Ti       5.68992     13.33305      2.46284         1.102892     -0.203318     -0.808223
Ti       5.62254     13.36119     15.26844         0.820064      0.083079     -1.160013
Ti       5.73791      1.94032      6.78420        -0.010990     -0.535102     -0.793771
Ti       5.60661     13.45477      6.68640         1.040834     -0.046368     -0.783758
Ti       5.75404      1.89252     11.05345         0.456009      0.118817     -0.119933
Ti       5.73820     13.39870     11.06669        -0.158152      0.626636     -0.349364
Ti       5.73713      5.63265      2.31248        -0.703852     -0.304234     -1.167744
Ti       5.63567      5.73328     15.50025        -0.071470     -0.187287     -1.724257
Ti       5.76556      5.78390      6.74988         0.176512     -0.090356     -0.674889
Ti       5.72694      5.71761     11.08037        -0.016729     -0.646720     -1.179965
Ti       5.76733      9.54590      2.39146         0.634008      0.372510     -1.615266
Ti       5.68779      9.44414     15.35174         0.637504      0.889725     -1.302103
Ti       5.64951      9.63609      6.66149         1.341640     -0.385616     -1.289030
Ti       5.72618      9.59421     11.13238         0.185628     -0.660760     -1.092077
Ti       9.63575      1.90764      2.40073         0.384933     -0.890444     -0.892346
Ti       9.57065      1.82944     15.52779         0.492069      0.710104     -1.578110
Ti       9.55885     13.33613      2.42554         0.087342      0.701351     -0.476659
Ti       9.47235     13.40108     15.41557         0.865422      0.354687     -0.530104
Ti       9.61328      1.93522      6.73378        -0.387480      0.035789      0.442538
Ti       9.53087     13.38561      6.69053        -0.095000      0.061730     -0.646440
Ti       9.56201      1.94316     11.14118         0.052871     -0.481747     -2.407346
Ti       9.52346     13.43508     11.10039         0.289444      0.898407     -0.323892
Ti       9.56576      5.72095      2.37134        -0.026047     -0.506610     -0.162850
Ti       9.55253      5.74457     15.48782         0.912268      0.172937     -0.106715
Ti       9.58775      5.75276      6.72629        -1.439129     -0.528031     -2.344721
Ti       9.64020      5.63608     11.11885        -0.438551      0.606743      0.054894
Ti       9.60859      9.52637      2.35422        -0.578801      0.321518     -1.012995
Ti       9.42479      9.58239     15.41725         1.184401     -0.262123     -0.213165
Ti       9.62611      9.61057      6.75538        -0.236560     -0.373040     -0.352144
Ti       9.48040      9.51895     11.04004         1.037836      0.278742     -0.463453
O       2.01271      1.95550      0.60615        -0.073371     -0.293892      0.811164
O       1.88646      1.85951     13.62525         0.284857     -0.239321      0.753658
O       1.88615     13.43158      0.44717         0.167650      0.091809      0.563392
O       1.81582     13.41462     13.77769        -0.048014      0.105268     -1.738308
O      13.49214      1.84054      0.67083         0.000140      0.213936     -0.320510
O      13.44318      1.90113     13.77066         0.017121      0.096063     -1.142138
O      13.33989     13.39496      0.61653         0.134907      0.102958     -0.020312
O      13.39984     13.41525     13.62323         0.123885     -0.211573     -0.010160
O       1.96192      1.89927      5.06437        -0.127588      0.065411     -0.679227
O       1.90672     13.34198      5.07239        -0.175852      0.050717     -0.078588
O      13.50594      1.86618      5.01070        -0.182530      0.162706     -1.191865
O      13.49921     13.40771      5.05046        -0.284116     -0.048747     -0.409995
O       1.80646      1.91812      9.20398         0.637476      0.019498      0.715771
O       1.93043     13.25418      9.29891        -0.068797      0.309169     -0.354002
O      13.33763      1.90207      9.43760         0.098776      0.131952     -2.767865
O      13.23487     13.32427      9.38208         0.150000      0.306700      0.125129
O       1.80880      5.69454      0.60014         0.550242     -0.253351      0.838188
O       1.83190      5.74117     13.66811         0.373934      0.078915      0.304764
O      13.39757      5.68457      0.62764         0.054877      0.047409     -0.138747
O      13.41344      5.54530     13.70394        -0.156441      0.469532      0.084829
O       1.85101      5.72939      4.91333        -0.112540      0.107017      0.545737
O      13.30150      5.83748      4.86307         0.276119     -0.206706     -0.142984
O       1.76817      5.82081      9.29154         0.122247      0.000635      0.592178
O      13.35400      5.62475      9.55222        -0.058239      0.279507     -1.166794
O       1.92268      9.42546      0.51498         0.059728      0.753079      0.214443
O       1.74328      9.51345     13.68938         0.615437      0.264198      0.750812
O      13.48611      9.50087      0.63128        -0.161390      0.348863     -0.300719
O      13.22824      9.51345     13.62297         0.271232      0.203009      0.428897
O       1.77977      9.71809      4.89560         0.922897     -0.490574      0.668283
O      13.28701      9.64831      4.89126         0.380877     -0.174063      0.442395
O       1.81112      9.58888      9.27583         0.242040     -0.233831      0.791689
O      13.37750      9.48338      9.42013        -0.059795      0.132790     -0.468055
O       5.78338      1.75959      0.63994        -0.099055      0.043984      0.342276
O       5.67657      1.84515     13.64295         0.133330      0.193065     -1.950465
O       5.85811     13.27444      0.67991        -0.492713      0.247975     -0.364536
O       5.72373     13.33171     13.47776        -0.297767     -0.082622      0.591940
O       5.79566      1.90900      5.00521        -0.294778     -0.049196     -0.491380
O       5.66020     13.42697      4.89823        -0.504764      0.180521      0.520117
O       5.62870      1.99979      9.33267         0.557276     -0.332222     -1.184134
O       5.66550     13.39288      9.28769        -0.130886     -0.172285     -0.176870
O       5.57765      5.64942      0.48145         0.685846      0.082094      0.704410
O       5.54127      5.69921     13.69292         0.474864      0.385711      0.526307
O       5.76235      5.86426      4.97343        -0.085814     -0.292328     -0.004811
O       5.64980      5.77337      9.27693         0.209720      0.101809      0.147863
O       5.71524      9.55140      0.54918        -0.056184      0.174168      0.860270
O       5.61790      9.51764     13.51848         0.284899     -0.419287      1.101315
O       5.63326      9.44385      4.84970         0.143260      0.190102      0.444450
O       5.69944      9.52716      9.32985        -0.080910      0.003322      0.226866
O       9.60772      1.70790      0.65533        -0.197747      0.640772     -0.249685
O       9.48657      1.89646     13.70685         0.136367      0.124551      0.443696
O       9.52170     13.35767      0.66265        -0.203347      0.088321     -0.357262
O       9.48704     13.36547     13.65360        -0.142103      0.210550     -0.905337
O       9.50525      1.95264      4.99584         0.334601      0.254550     -0.851934
O       9.56542     13.12092      4.96582        -0.074725      0.707216     -0.060245
O       9.48875      1.90311      9.32571         0.245938      0.064300      0.906996
O       9.46595     13.51611      9.35580         0.278406     -0.110455     -0.637293
O       9.46910      5.69341      0.57994         0.121259      0.409699     -0.417804
O       9.57519      5.68078     13.74722        -0.395741     -0.103366     -0.809754
O       9.45656      5.51914      4.91777         0.458123      0.740719      0.875537
O       9.71783      5.60381      9.39385         0.053011      0.283495     -1.013466
O       9.58899      9.39790      0.58581        -0.336573      0.358472     -0.114028
O       9.49930      9.54150     13.65610        -0.156945      0.307863     -0.132942
O       9.55592      9.65879      5.01663         0.489047      0.033820     -0.507561
O       9.55380      9.46361      9.27183         0.048878      0.384056     -0.359940
O       3.83144      1.92307      2.77514         0.515708     -0.655986      0.385229
O       3.80723      1.77913     15.82467         1.638529      0.787154      0.026410
O       3.82179     13.46624      2.64532        -1.090799     -0.110759      0.538839
O       3.80594     13.29334     15.65555        -0.054658     -0.019336      0.525436
O       0.04719      1.92334      2.83392         0.053106      0.215549      0.097071
O       0.03471      1.90970     15.89120        -0.787435     -0.611043     -0.002639
O       0.02941     13.46687      2.59845        -0.463446     -0.347405      0.558620
O      15.22027     13.44416     15.87176         0.517463     -0.032068     -0.055794
O       3.85004      2.01144      7.10758        -0.963745     -0.471327      0.359109
O       3.74810     13.48957      7.17775         0.038662     -0.438198      0.245740
O      15.28600      1.93015      7.13718        -0.075456      0.128494      0.275648
O      15.28461     13.42975      7.18671        -0.242790     -0.269146      0.341399
O       3.87437      1.77950     11.33649        -1.242059      0.455008      0.623651
O       3.78063     13.33146     11.42186         0.109446     -0.002502      0.259926
O      15.33417      1.93465     11.36274         0.497168     -0.600833      0.566064
O      15.31735     13.44246     11.43736         0.058227     -0.457820      0.192834
O       3.79663      5.74424      2.75833         0.654441      0.091346      0.149848
O       3.76415      5.66793     15.86159        -0.159788      0.373266      0.019772
O      15.33197      5.66574      2.79835         0.398082     -0.016876      0.199854
O      15.33210      5.74143     15.86167         0.073054     -0.058804     -0.014801
O       3.75055      5.83744      6.99199         0.156885     -0.041677      0.467068
O      15.24633      5.75200      7.10009         0.061112      0.152250     -0.067694
O       3.79643      5.70598     11.41232        -0.473791      0.287087      0.302115
O      15.31882      5.69012     11.61486        -0.023623      0.121437     -0.232550
O       3.87514      9.53370      2.68234        -1.233295     -0.148646      0.144788
O       3.84348      9.58876     15.80473        -0.950626     -0.339209     -0.228281
O       0.03699      9.53669      2.71987         0.096965      0.394610      0.051227
O      15.22966      9.60310     15.78724         0.608453     -0.237576      0.021904
O       3.82865      9.38977      7.06173        -1.053237      0.604541     -0.000372
O      15.28273      9.64028      7.05421         0.462265     -0.187838      0.234826
O       3.78450      9.58659     11.44178        -0.106691     -0.500067      0.094988
O      15.32698      9.60546     11.53521        -0.029239     -0.224469      0.065119
O       7.73911      1.90307      2.83815        -0.836291      0.131689     -0.280676
O       7.65220      1.82585     15.81431        -0.524854      0.305152     -0.003329
O       7.56894     13.32375      2.80864         1.070295      0.365178      0.321227
O       7.56865     13.39112     15.66190        -0.167408      0.152568      0.607203
O       7.62696      1.99605      7.04079         0.294004     -0.160971      0.681011
O       7.57658     13.38195      7.06616         0.013488     -0.069816      0.287508
O       7.64800      1.88110     11.45816        -0.395039      0.196493      0.379512
O       7.57331     13.41319     11.38689         1.247972     -0.059231      0.472280
O       7.58797      5.64021      2.70286         0.797264     -0.011024      0.069352
O       7.60736      5.72908     15.80234         0.361853      0.300262     -0.016472
O       7.67180      5.75742      7.10458        -0.391309     -0.204643      0.358301
O       7.72923      5.64650     11.43998        -1.136021      0.457126      0.598311
O       7.68326      9.60150      2.71181        -0.383515     -0.066985      0.194608
O       7.53269      9.57171     15.72991         0.984012     -0.515853      0.224932
O       7.62471      9.63521      7.00264        -0.284487      0.055713      0.680785
O       7.64436      9.45094     11.28321        -0.686625      0.289380      0.838582
O      11.59053      1.86829      2.80095        -0.561367      0.154821      0.173334
O      11.46822      1.93028     15.85776         0.101486      0.145683     -0.038999
O      11.49896     13.49103      2.76653        -0.172252     -0.227172      0.272989
O      11.37998     13.42525     15.73038         0.455674     -0.378450      0.269528
O      11.56213      1.91745      6.99656        -2.117889     -0.032871      0.558492
O      11.44507     13.46956      7.12842        -0.509985     -0.319375      0.095453
O      11.50043      1.91928     11.46972        -1.023174     -0.087876      0.699235
O      11.47248     13.46147     11.54564        -0.930140     -0.144471     -0.160544
O      11.47796      5.77638      2.66823         0.118069      0.235135      0.352396
O      11.48091      5.67346     15.82528        -0.465225      0.076077      0.403441
O      11.45531      5.76674      7.03711         0.820571      0.245441      0.424837
O      11.46479      5.65806     11.62140         0.115051     -0.075351      0.163412
O      11.52027      9.56159      2.63432        -0.453534     -0.393901      0.607496
O      11.45990      9.57588     15.96533        -0.669602      0.028401     -0.517315
O      11.52535      9.69945      7.12315        -0.844833     -0.933726      0.386313
O      11.42603      9.59987     11.46851        -0.497761     -0.193127     -0.032371
O       2.02070      3.76654      2.88555        -0.843056      0.424244     -0.231024
O       1.84791      3.73554     15.79541         0.444617      1.227255      0.212713
O       1.79491     15.31550      2.73790         1.054599      0.532139      0.052940
O       1.94431     15.32963     15.89796        -0.211578     -0.390356     -0.032774
O      13.42338      3.82804      2.74264        -0.076974     -0.299334      0.584963
O      13.43738      3.81483     15.86175        -0.170089     -0.399242      0.478432
O      13.49106     15.32004      2.78639         0.087424      0.275591      0.291106
O      13.29446     15.33536     15.76530         0.701684     -0.142184      0.265775
O       1.82596      3.85706      7.09371        -0.053768      0.804339      0.017473
O       1.79967     15.35556      7.08726         0.344501      0.040704      0.642435
O      13.36632      3.90517      6.96222        -0.066523     -0.152705      0.434056
O      13.33969     15.35305      7.14050         0.416779     -0.252296      0.349985
O       1.86471      3.80050     11.45554         0.540619     -0.036236     -0.060699
O       1.91934     15.30751     11.35431        -0.020607      0.019780      0.252959
O      13.44629      3.75507     11.61228        -0.563758      0.289019      0.153410
O      13.35367     15.31375     11.53687         0.221946      0.185811      0.008012
O       1.87487      7.61632      2.61048         0.277935      0.518585      0.765134
O       1.84736      7.69067     15.77299         0.482672     -0.370490      0.250491
O      13.50750      7.67285      2.71707        -0.380864     -0.413995      0.499089
O      13.33077      7.63461     15.86260         0.171723      0.033552     -0.167747
O       1.72685      7.70656      6.99566         0.098849     -0.277488      0.282254
O      13.40433      7.70229      6.99452        -0.375577     -0.078580      0.651745
O       1.77198      7.59364     11.46989         0.677533      1.425054      0.140014
O      13.31790      7.64909     11.50420         0.213417     -0.755147      0.401575
O       1.82350     11.51923      2.58256         1.106629     -0.243326      0.153355
O       1.67228     11.50471     15.73135         0.898869     -0.761818      0.398162
O      13.33242     11.49940      2.68182         0.601409     -0.045021      0.434822
O      13.30859     11.47479     15.72772         0.264943      0.210270      0.438592
O       1.83131     11.46760      7.13587         0.777657     -0.290897      0.171317
O      13.25810     11.48132      7.13476         0.601194      0.808851      0.395323
O       1.86637     11.46364     11.46114        -0.043680     -0.020168      0.370912
O      13.28609     11.45149     11.47833         0.549273      0.566060      0.248066
O       5.70056      3.77627      2.72036        -0.026767      0.000561      0.302519
O       5.79675      3.81265     15.68271        -0.336234     -0.790224      0.441933
O       5.67503      0.00634      2.81700         0.547589     -0.824697      0.022097
O       5.68351     15.27336     15.64898         0.042797      0.095259      0.564336
O       5.68238      3.85180      7.14278         0.266927      0.823248     -0.189397
O       5.63384     15.32827      7.13231         0.267732      0.413285      0.101198
O       5.64771      3.82399     11.45933         0.618135     -0.350821      0.102006
O       5.71932     15.29596     11.44423        -0.100374      0.108109     -0.081020
O       5.86171      7.56705      2.61845        -0.791271      0.715602      0.301154
O       5.71831      7.59978     15.87171        -0.273280      0.743537     -0.281775
O       5.77129      7.69330      7.08461        -0.106368     -0.246968      0.403705
O       5.70065      7.54542     11.49595         0.061555      1.202238      0.257612
O       5.65927     11.42742      2.87021        -0.024585      0.186973     -0.345400
O       5.76575     11.44885     15.73498        -0.421450     -0.066725      0.003071
O       5.56090     11.47509      6.93675         0.004768      0.339519      0.473792
O       5.79004     11.42362     11.47537        -0.228001      0.454884     -0.174442
O       9.73125      3.83547      2.64775        -0.516072     -0.757883      0.427644
O       9.57348      3.81018     15.84887        -0.342959     -0.116454      0.054210
O       9.56419     15.33206      2.88888        -0.053890     -0.164546     -0.078427
O       9.54760     15.33212     15.79647        -0.437194     -0.360941     -0.042928
O       9.58924      3.82131      7.14615         0.094703      0.258694      0.267956
O       9.45223      0.00794      7.04759         0.499303     -0.396404      0.019505
O       9.48657      3.77314     11.53959         0.519766      0.393952      0.495749
O       9.48220     15.35916     11.55047         0.600960     -0.202774     -0.135828
O       9.51898      7.62745      2.77567         0.082580     -0.014926      0.022997
O       9.60000      7.69994     15.73852        -0.530128     -0.776510      0.525493
O       9.53797      7.65730      7.07022         0.421099      0.257518      0.187557
O       9.51765      7.69681     11.49633         0.408972     -1.272185     -0.011650
O       9.63331     11.45871      2.70373        -0.139414     -0.280406      0.255428
O       9.45808     11.52129     15.74667         0.240350     -0.842964      0.331411
O       9.50798     11.52518      7.21026         0.507479     -0.132880      0.256885
O       9.49226     11.56816     11.35395         0.145597     -1.171725      0.258577
