  # total energy = -7879.67488536 
CRSYTAL
PRIMVEC
    15.6000000000000000    0.0000000000000000    0.0000000000000000
     0.0000000000000000   15.6000000000000000    0.0000000000000000
     0.0000000000000000    0.0000000000000000    17.640000000000000
PRESSURE
-3.70647 -3.65243 -1.17691 -0.133546 0.770212 -0.015497
PRIMCOORD
320 1
Pb       3.82503      3.90108      4.34178        -0.155046     -0.023001     -0.220594
Pb       3.90046      3.88532     17.55328        -0.100186      0.314824      0.205105
Pb       3.88966      0.09376      4.32498         0.027438     -0.425951      0.189127
Pb       3.85909     15.53647     17.57623         0.245156      0.281224     -0.228358
Pb      15.56482      3.83124      4.39872         0.042375      0.166176     -0.717333
Pb      15.52918      3.92683     17.56192         0.223528      0.135974     -0.143823
Pb       0.00449      0.06922      4.42380        -0.021592     -0.206145     -0.101506
Pb      15.56189     15.55314     17.51236         0.246613      0.309676     -0.053784
Pb       3.91738      3.85112      8.75844        -0.156549     -0.198213     -0.031000
Pb       3.94701     15.51432      8.71647        -0.295561      0.596725      0.229517
Pb      15.54850      3.91787      8.77760         0.646092     -0.412534     -0.077984
Pb       0.02770     15.41161      8.71648        -0.381908      1.071950      0.020006
Pb       3.87749      3.81112     13.27394         0.190208     -0.021451     -0.075291
Pb       3.79813     15.52438     13.14655         0.357045      0.208321      0.412269
Pb      15.51687      3.86867     13.01999         0.210388     -0.087397      0.983949
Pb      15.55420     15.57167     13.11931        -0.090775     -0.090299     -0.052951
Pb       3.87652      7.74700      4.51216        -0.166656      0.201578     -0.523223
Pb       3.85243      7.70116      0.00222         0.108894     -0.222700     -0.354463
Pb      15.57113      7.91410      4.29957         0.081227     -0.595252      0.278152
Pb       0.01127      7.73411     17.56405        -0.223980     -0.382002      0.570983
Pb       3.95280      7.73845      8.68390        -0.022556      0.322615      0.178706
Pb      15.52344      7.67607      8.79160         0.526297      0.295607      0.023829
Pb       3.80174      7.63698     13.15712         1.171277      0.753430      0.671937
Pb       0.07847      7.74530     13.20404        -0.280346      0.293418      0.122964
Pb       3.88204     11.74356      4.38303        -0.289532      0.202936     -1.116674
Pb       3.84123     11.71350      0.05029        -0.054306     -0.264064      0.039096
Pb      15.56088     11.75042      4.36038         0.549335      0.081628     -0.276898
Pb      15.56428     11.73735     17.50655        -0.346473     -0.180455      0.444159
Pb       3.81921     11.58572      8.76338         0.793666     -0.219929      0.188051
Pb      15.57175     11.72488      8.73035        -0.418079     -0.656624     -0.152579
Pb       3.84518     11.71223     13.16013         0.078923     -0.337578     -0.222753
Pb      15.50261     11.65648     13.06700         0.280598     -0.096233      0.234752
Pb       7.67122      3.93239      4.34628         0.338156     -0.314509      0.028340
Pb       7.72522      3.89451     17.55884         0.319352      0.135979      0.138762
Pb       7.75721      0.15801      4.35091         0.053082     -0.349946     -0.055265
Pb       7.83381      0.08218     17.47509        -0.126740     -0.494425      0.282771
Pb       7.67126      3.79370      8.87843         0.293166      0.173420     -0.100816
Pb       7.76631     15.51810      8.89079        -0.011854      0.071137     -0.413610
Pb       7.77118      3.91192     13.21267         0.186075      0.546234     -0.515504
Pb       7.77234     15.57311     13.16967         0.104104     -0.402822      0.099476
Pb       7.78796      7.98360      4.37351         0.460847     -0.297619      0.361410
Pb       7.72232      7.82388      0.08536        -0.345122     -0.117897     -0.578455
Pb       7.73972      7.77132      8.72634         0.230386      0.126113      0.506358
Pb       7.59296      7.80792     13.18078         0.405309     -0.308173     -0.469502
Pb       7.87466     11.80405      4.36955        -0.129260     -0.082359     -0.388566
Pb       7.75365     11.61695     17.60918         0.221506      0.231823     -0.119949
Pb       7.75671     11.69455      8.73759         0.379512     -0.098914      0.691112
Pb       7.85952     11.60079     13.21741        -0.229189      0.250428     -0.653025
Pb      11.63761      3.92730      4.37698         0.465167      0.388357      0.257386
Pb      11.74286      3.86243     17.58538        -0.391775      0.200553      0.076604
Pb      11.71072      0.17905      4.44001         0.156386     -0.257686     -0.207609
Pb      11.63698     15.56100     17.54654        -0.035770      0.151008     -0.070015
Pb      11.66270      3.82058      8.74975        -0.159160      0.443212      0.160192
Pb      11.78133      0.02433      8.86952        -0.178591     -0.641912     -0.585460
Pb      11.56411      3.83168     13.17912         0.214237      0.133000     -0.228083
Pb      11.65573     15.46584     13.07885         0.273870     -0.032235      0.245983
Pb      11.59884      7.83250      4.40018         0.280436     -0.618822      0.181826
Pb      11.46274      7.81275     17.60935         0.836202     -0.082064      0.272119
Pb      11.64014      7.77810      8.69160        -0.192898     -0.458719      0.112696
Pb      11.56591      7.73003     13.16408         0.296013      0.426065     -0.032582
Pb      11.71150     11.84347      4.25645        -0.359267     -0.617928      0.845630
Pb      11.80691     11.65076     17.50533        -0.169527      0.166494      0.091190
Pb      11.73958     11.53681      8.70584        -0.037271      0.578012      0.186843
Pb      11.66409     11.60856     13.07897         0.156855      0.351315      0.077513
Ti       1.98134      1.88248      2.32823        -0.742080      1.218029     -0.311215
Ti       1.97881      1.91418     15.58630        -0.659355     -0.021926      1.248182
Ti       1.89996     13.72853      2.30665         0.721196     -1.225472      0.475117
Ti       2.00539     13.55777     15.70754        -0.239457      1.039322     -1.169229
Ti      13.65558      1.90299      2.38473         0.669708      0.613365      0.046038
Ti      13.66259      1.98432     15.63711        -0.244656     -0.056225      0.335280
Ti      13.55391     13.60999      2.35614         1.167611      0.646654      0.152230
Ti      13.64176     13.72357     15.56132         0.458634     -0.589476      0.445559
Ti       1.91126      2.01152      6.81083        -0.002693     -1.327815     -0.922280
Ti       1.93059     13.59330      6.89964         0.122725      0.764365     -1.472711
Ti      13.63567      1.91699      6.77350         0.775960     -0.737923     -1.064704
Ti      13.61116     13.59417      6.74987        -0.506317      0.639665      0.831673
Ti       1.98593      1.90609     11.22143         0.424270     -0.204323     -1.015382
Ti       1.92650     13.61641     11.13040        -0.374156     -0.564794      2.823626
Ti      13.68265      1.91939     11.09518        -0.216395     -0.391850      1.093808
Ti      13.62052     13.66340     11.16860        -0.809228     -1.180150      1.075379
Ti       2.00417      5.90928      2.45331        -0.521024     -1.120264     -0.916125
Ti       1.94291      5.79109     15.55150         0.050677      0.122919     -0.330691
Ti      13.67049      5.81977      2.40796         1.086049     -0.061570      1.049961
Ti      13.50486      5.93120     15.64389         0.912401     -0.382112      0.211090
Ti       1.98388      5.83189      6.74936         0.226560     -0.316396      0.344016
Ti      13.68503      5.74408      6.96516        -0.858908      0.675768     -2.791920
Ti       2.02096      5.71971     11.27493        -0.154027      1.239302      0.426315
Ti      13.68351      5.84011     11.19508        -0.544396      0.381577     -0.132351
Ti       1.95304      9.72721      2.38922         0.491135      1.005075      0.242277
Ti       1.92812      9.67942     15.60507        -0.084280     -0.204540      0.581449
Ti      13.61578      9.72092      2.40786         1.075356      0.146788     -0.062337
Ti      13.65540      9.69991     15.63994        -0.771495     -0.153176      0.021841
Ti       1.97707      9.67454      6.84436         0.113582     -0.463033     -1.364821
Ti      13.70275      9.60755      6.75746         0.260217      0.879024      0.211486
Ti       1.95847      9.63039     11.18290         0.979892      0.508359      1.380051
Ti      13.66688      9.66946     11.07000         0.071896      0.583461      1.304225
Ti       5.77132      1.97328      2.32945         0.263779     -0.269532      0.763174
Ti       5.84107      1.96190     15.50135        -0.566738     -0.199623      1.405705
Ti       5.91211     13.64505      2.33626        -1.431615      0.002667      0.064690
Ti       5.91279     13.58816     15.66773         0.331183      1.050791     -1.320521
Ti       5.86157      1.89842      6.74112        -0.207079     -0.352025      0.330459
Ti       5.87017     13.63589      6.80985         0.079882      0.445448     -0.723027
Ti       5.90154      2.00859     11.28257        -1.072005     -0.230635      0.535846
Ti       5.77217     13.75139     11.20008         1.606956     -0.848587     -0.059653
Ti       5.95790      5.87848      2.44393        -1.785705     -0.535547     -1.157239
Ti       5.91363      5.86488     15.66353        -0.380995      0.669005     -1.043047
Ti       5.85886      5.83459      6.78906         0.146925     -0.585397     -0.429967
Ti       5.83082      5.80688     11.12400         1.013528      0.684733      1.399576
Ti       5.86618      9.72558      2.46297         0.354569      0.774705     -0.221279
Ti       5.78615      9.75169     15.53693         0.275270     -1.125553      0.817178
Ti       5.94237      9.81370      6.72729        -0.889269     -0.634584      0.379995
Ti       5.85432      9.81727     11.18968        -0.052375     -1.500879     -0.241852
Ti       9.79510      2.07360      2.34170        -0.274904     -0.725331      0.581549
Ti       9.76098      1.96398     15.61908        -0.250715      0.013960      0.849347
Ti       9.73683     13.72840      2.35606        -0.109614     -0.791003     -0.987184
Ti       9.81864     13.57351     15.59796        -1.041361      0.099134     -0.174989
Ti       9.71086      1.88545      6.90525        -0.156902      0.211367     -0.723168
Ti       9.78253     13.63013      6.88157         0.387771      0.070288      0.908272
Ti       9.77727      1.87785     11.23077        -0.568196      0.568243     -0.201399
Ti       9.66008     13.64191     11.13663         1.310888     -0.780914     -0.309088
Ti       9.76955      5.86946      2.38477         0.535453     -0.525075     -1.268170
Ti       9.75917      5.82099     15.57876        -0.848617     -0.480977      1.039969
Ti       9.67557      5.75234      6.88599         0.959824      0.628868     -1.253705
Ti       9.77155      5.78975     11.20018        -0.947807      0.663292     -0.507215
Ti       9.76457      9.78065      2.36001         0.212725     -0.379585      2.883750
Ti       9.68814      9.68309     15.55609         1.279273      0.116315      0.005126
Ti       9.77842      9.70905      6.81953         0.248489      0.198229      0.296253
Ti       9.79696      9.71059     11.14944        -1.122714     -0.515330      0.344733
O       1.91355      1.90352      0.54274         0.177436     -0.207541      0.301972
O       1.99474      1.92784     13.88446        -0.059119     -0.397902     -2.241538
O       1.85295     13.68568      0.53820         0.288469      0.026079     -0.685378
O       2.23228     13.57136     13.95916        -0.679279      0.165987     -0.661353
O      13.66314      1.92701      0.62179         0.042843      0.094440     -0.289593
O      13.57645      2.01340     13.93210         0.184847     -0.156088     -1.448673
O      13.74581     13.50609      0.60515        -0.335302      0.369991      0.243931
O      13.57695     13.68953     13.84737         0.262030      0.208113     -1.184105
O       1.99153      1.89959      5.01491         0.060538      0.107214      0.978546
O       1.91902     13.67800      5.16577         0.471034     -0.349872      0.295886
O      13.63123      1.81469      4.95757        -0.098228      0.444391      1.037310
O      13.58208     13.71684      5.04569        -0.197241     -0.416451     -1.080377
O       1.94783      1.85420      9.48333         0.208162      0.517595      0.272016
O       1.81327     13.52143      9.46576         0.022552      0.065208     -2.459287
O      13.66237      1.91529      9.39573         0.072798      0.116474     -1.071550
O      13.68691     13.62350      9.48312         0.186809     -0.229938     -2.575635
O       1.99640      5.88199      0.67175         0.201867      0.112001      0.292679
O       2.02320      5.87027     13.75690        -0.275633     -0.019868      0.433344
O      13.70749      5.80103      0.71882        -0.020269     -0.384823     -1.977665
O      13.56397      5.90803     13.89716        -0.051143      0.137825     -0.152234
O       2.06944      5.82464      5.02024        -0.144096     -0.035401     -0.999181
O      13.65398      5.69812      5.18573         0.183375      0.373570      0.606641
O       2.00923      5.69978      9.56874        -0.077796      0.318701     -1.209795
O      13.81367      5.77820      9.43927        -0.043980      0.135356     -0.534036
O       2.13234      9.81694      0.64624        -0.276808     -0.208293     -0.029090
O       1.76068      9.66558     13.89592         0.233346      0.219580     -0.329195
O      13.68577      9.99423      0.69920        -0.269596     -0.055693     -0.464707
O      13.57304      9.50292     13.89011         0.261195      0.377501      0.606747
O       2.01335      9.58686      5.07869         0.191736      0.420414     -0.000598
O      13.75518      9.64532      5.03091         0.041835     -0.025516     -0.680401
O       2.16339      9.65150      9.47958        -0.299037     -0.050696     -1.557620
O      13.59795      9.84645      9.34583         0.223375     -0.471473     -0.445399
O       5.71751      2.10899      0.60429         0.182109     -0.086558     -0.375853
O       5.68544      2.00722     13.77259         0.705277     -0.140826     -0.460310
O       5.92253     13.55530      0.60823         0.111827      0.106470     -1.270755
O       5.94665     13.62969     13.89363        -0.134226      0.132344      0.149009
O       5.86228      1.71171      4.98411         0.200370      0.496022      0.379138
O       5.83134     13.76928      5.03576        -0.082630     -0.657702      0.697169
O       5.88644      2.08144      9.56389         0.002786     -0.194372     -1.556257
O       5.81961     13.76181      9.46170         0.376665     -0.352103     -0.602857
O       5.72387      5.74274      0.67937         0.455615      0.357750      0.359098
O       5.97604      6.03304     13.86100        -0.180391     -0.724387      0.983304
O       5.86823      5.77993      5.04233         0.202072      0.182760     -0.337528
O       5.84137      5.65875      9.38788        -0.158634      0.222304     -0.839866
O       6.03548      9.72807      0.70889        -0.160085      0.031995     -0.729549
O       5.97176      9.53448     13.82239        -0.280191      0.633767      0.231233
O       5.98980      9.71871      4.94063        -0.022935      0.310680      0.905604
O       5.89874      9.67998      9.42385        -0.277199      0.370924     -0.294513
O       9.74130      2.01140      0.63250         0.092796     -0.264642     -0.699427
O       9.59066      1.94984     13.89333         0.487737      0.212394     -1.211607
O       9.82924     13.69732      0.61766        -0.303342     -0.023165     -0.416008
O       9.66939     13.56327     13.83962         0.382707      0.284953     -0.061393
O       9.72272      2.05877      5.15521         0.064127     -0.352425     -0.175420
O       9.87843     13.45810      5.19331        -0.218317      0.199998     -1.785761
O       9.71713      1.89721      9.48407         0.150186     -0.075008     -0.330465
O       9.86579     13.65879      9.38589        -0.716839      0.207865     -0.349477
O       9.93892      5.89516      0.62743        -0.330033      0.019352      0.467367
O       9.71026      5.63643     13.85822         0.249222      0.010046     -1.192464
O       9.88950      5.88656      5.10266        -0.393873     -0.553748      0.118039
O       9.72007      5.75602      9.46614         0.359872      0.161277     -0.910210
O       9.64087      9.62390      0.70640        -0.086024      0.059694     -2.722735
O       9.87652      9.64107     13.81430        -0.536865      0.536293     -0.174350
O       9.74820      9.64192      5.08755        -0.149459      0.004149     -0.397049
O       9.84403      9.69594      9.39244         0.090081     -0.053782     -0.118478
O       3.87801      1.93153      2.83140         0.488250     -0.215227     -0.203781
O       3.86087      2.12682     15.91785         0.924363     -0.772815      0.227425
O       3.90127     13.57969      2.51022         0.143997      0.126927      0.956833
O       3.95313     13.72729     15.98116         0.173448     -0.758509      1.038695
O       0.08930      1.90127      2.86346        -0.546346     -0.295496     -0.187863
O      15.58178      1.94634     15.89442        -0.107698     -0.019172      0.573954
O       0.08207     13.63659      2.83968        -1.078418      0.022576     -0.018107
O       0.03521     13.71144     15.95684        -0.593371     -0.082349     -0.030108
O       3.94540      1.70244      7.19847         0.500370      1.058017     -0.161432
O       3.83160     13.64484      7.29151         0.748006     -0.029827     -0.151402
O       0.00791      2.00651      7.05506        -0.033099      0.093246      0.531892
O      15.52612     13.56231      7.05758         1.153315     -0.068750      1.225078
O       3.91517      1.98860     11.69329        -0.765898     -0.274955     -0.100839
O       3.95849     13.61544     11.46557        -1.785627     -0.197268      0.639155
O       0.00973      1.78056     11.50416        -0.191537      0.458098      0.682610
O      15.51572     13.65012     11.60963         1.821263      0.089460      0.337901
O       3.98559      5.89886      2.88169        -0.482601      0.094116      0.227711
O       3.94579      5.80549     16.06843        -0.416032      0.366501     -0.260233
O       0.10318      5.72839      2.81243         0.033165      0.456915      0.384216
O       0.00242      5.90080     15.98123         0.053806      0.134238      0.145687
O       3.89125      5.70137      7.19081         1.063326      0.458504      0.229740
O       0.12213      5.89391      7.28619        -0.902715     -0.666516      0.205910
O       3.92288      5.87887     11.64171         0.128142     -0.618846     -0.297366
O      15.59106      5.93384     11.69131         0.020445     -0.536897     -0.261014
O       4.04619      9.61708      2.83883        -1.256527      0.361049      0.258136
O       3.90840      9.72565     15.95942         0.236706      0.512958     -0.122389
O       0.07236      9.76344      2.86570        -0.005499      0.341123     -0.258255
O      15.50270      9.56731     16.16126         1.058079      0.820337     -0.781258
O       3.98433      9.67483      7.15140         0.532893     -0.016206      0.256875
O       0.10477      9.69308      7.11043        -0.695508     -0.118556      0.792679
O       3.92136      9.71342     11.67802        -0.317486      0.373208     -0.023819
O       0.02481      9.59540     11.55317        -0.459593      0.639183     -0.203133
O       7.84761      1.91703      2.86866         0.081243      0.555856     -0.478829
O       7.73295      1.97891     16.03582         0.208652      0.107265     -0.277236
O       7.77605     13.64467      2.77302         0.813465     -0.078313      0.384234
O       7.89044     13.75838     16.02650        -0.682811     -0.553038      0.245778
O       7.78267      1.80693      7.24479         0.180664      0.582922      0.208135
O       7.81391     13.45411      7.18874        -0.224660      0.731452      0.071789
O       7.75322      1.90410     11.55175         1.198854      0.048599      0.682823
O       7.85188     13.75851     11.53543        -1.249892     -0.170585      0.277834
O       7.82753      5.70394      2.52284         0.589567     -0.116071      0.962809
O       7.85328      5.82992     16.12966        -0.113548      0.266248     -0.067673
O       7.80711      5.88631      7.16115        -0.581386     -0.910764      0.286460
O       7.82637      5.69300     11.46254        -1.139029      0.726132      0.577061
O       7.87723      9.88196      2.91592         0.247331     -0.950483     -0.040782
O       7.86375      9.67735     16.03789        -0.644224      0.101074      0.013075
O       7.81578      9.83259      7.28379        -0.130912     -0.574160     -0.590832
O       7.79950      9.65276     11.61476         0.653289      0.504652      0.026515
O      11.74855      2.04951      2.81195        -0.670647     -0.782835     -0.047626
O      11.62837      1.93594     15.97616         0.666043      0.302371      0.338856
O      11.65930     13.56036      2.69067         0.992021      0.224297      0.270048
O      11.74413     13.72429     15.96166        -0.462746     -0.600695      0.268087
O      11.76932      1.87942      7.20268        -0.562407      0.395855      0.313097
O      11.73665     13.81998      7.23400         0.394581     -0.988845      0.211332
O      11.67914      1.87862     11.55438         0.347687      0.577734      0.216829
O      11.66124     13.62963     11.48516         0.092223     -0.245665      0.858496
O      11.86186      5.76848      2.81912        -1.477149      0.366727      0.411557
O      11.62494      5.85722     16.04377         1.183325     -0.425495      0.007943
O      11.70629      5.75473      7.29296         0.627369      0.546140      0.501017
O      11.74757      5.84143     11.56337         0.411990     -0.708320      0.215819
O      11.81446      9.59478      2.80781        -1.656935      0.730478     -0.022048
O      11.63112      9.79892     16.11908         0.633338     -0.370582     -0.174862
O      11.77939      9.65726      7.00626        -0.759393     -0.118356      0.801792
O      11.67192      9.77004     11.65704         0.442703     -0.114497     -0.628630
O       2.06015      3.77662      2.68722         0.016304      1.031714      0.558561
O       1.94271      3.93560     15.78421        -0.296836     -0.152513      0.797996
O       1.99356     15.55309      2.82405         0.057895      0.311896     -0.230274
O       1.92409     15.56219     16.00541         0.508614      0.580801      0.217861
O      13.79511      3.81418      2.78525        -0.238047      0.168022      0.256686
O      13.64587      3.96740     15.98744        -0.207499     -0.176924      0.512767
O      13.64107     15.59409      2.87200        -0.207816     -0.624567     -0.454093
O      13.52909      0.01418     15.99284         0.809108      0.131353      0.176024
O       2.01941      3.86825      7.24723        -0.165567     -0.121475     -0.003105
O       1.87605      0.06445      7.33309         0.038605     -1.411033     -0.171509
O      13.73587      3.88886      7.17214        -0.157045     -0.805843      0.777949
O      13.74555      0.03420      7.14455         0.025313     -0.576989      0.512930
O       1.94483      3.87784     11.57913        -0.278796     -0.794343      0.496840
O       2.03378     15.54027     11.52757        -0.321581     -0.474247      0.544550
O      13.75083      3.84072     11.50100        -0.295520      0.203610      0.119542
O      13.60796     15.51607     11.42786         0.000484      1.768557      0.979688
O       1.98303      7.82197      2.81396         0.092378     -0.097012      0.076155
O       2.02981      7.77973     15.97448        -0.181009      0.080617      0.318023
O      13.79049      7.83738      2.63736         0.129727     -0.669764      0.526177
O      13.56627      7.79658     16.37268        -0.170956     -0.177221     -1.236335
O       2.06597      7.68158      7.11228         0.136484      0.865493      0.808214
O      13.71680      7.75344      7.26710        -0.002192     -0.055058      0.228469
O       2.08606      7.80277     11.70948        -1.226610     -0.639207     -0.640681
O      13.64215      7.84211     11.40818        -0.256444     -1.012036      0.131833
O       2.00829     11.72798      2.76006         0.230208     -0.792693      0.573135
O       1.88314     11.67061     16.02629         0.497657     -0.494908      0.159680
O      13.66268     11.77164      2.94530         0.161444     -0.352168     -0.352995
O      13.74985     11.70474     15.91086        -0.489104     -0.345492      0.209485
O       2.09442     11.58521      7.20921        -0.759770      0.908406      0.134210
O      13.72157     11.62524      7.28829        -0.528754      0.282207     -0.762182
O       1.91223     11.64843     11.69418         0.117224      0.649881     -0.411815
O      13.66583     11.69406     11.59806        -0.058429     -0.975202      0.109061
O       5.78915      3.84109      2.95469         0.482982      0.344950     -0.313639
O       5.91840      3.98860     15.98905        -0.202888     -1.181667     -0.161179
O       5.75739      0.06779      2.68230         0.658901     -0.665406      0.141092
O       5.86578      0.04360     15.98487        -0.261515      0.416032      0.030363
O       5.94764      3.80093      7.09421        -0.287430     -0.017777      0.238459
O       5.99808     15.50946      7.25708        -0.528276     -0.043911      0.172235
O       5.80420      3.92571     11.63335         0.073420      0.069833      0.369251
O       5.89029      0.01432     11.55029        -0.482969     -0.142942      0.532416
O       6.08390      7.76935      2.77153        -0.164861     -0.083469      0.069624
O       5.91429      7.78155     16.13151        -0.159855      0.578011      0.128387
O       5.94282      7.73090      7.10801        -0.444028      0.748977      0.206526
O       5.89958      7.81220     11.53910        -0.243388     -1.245410     -0.004928
O       5.89842     11.68205      2.67775        -0.180748      0.287101      0.924197
O       5.97609     11.69719     15.89153        -0.209169     -0.876454      0.511976
O       5.82226     11.68363      7.27759        -0.183387     -0.133356     -0.618498
O       5.84843     11.62959     11.66005         0.393322      1.384263      0.066381
O       9.87636      3.92698      2.66089        -0.399723     -0.223923      0.694252
O       9.78329      3.87537     16.11416        -0.191743     -0.050898     -0.253486
O       9.84176     15.48910      2.78129        -0.137785      1.937268      0.377542
O       9.75614      0.01209     16.07307         0.074105      0.200503     -0.167060
O       9.85781      3.90243      7.28661        -0.793447     -1.111584      0.112536
O       9.78916     15.59563      7.12199        -0.387787     -0.195751      0.568142
O       9.60360      3.91834     11.57687         1.319595     -1.917589      0.702631
O       9.82702     15.54667     11.61590        -0.668736      0.934304      0.091252
O       9.81012      7.70412      2.79754        -0.294410      0.968522      0.345702
O       9.91309      7.70373     15.82669        -0.737401      1.293064      0.426760
O       9.68663      7.70868      7.22787         0.521379      1.211036      0.412844
O       9.80997      7.73374     11.55715        -0.052959      0.525664      0.007410
O       9.84538     11.60611      2.71033        -0.104565      1.008908      0.396869
O       9.79698     11.67048     15.94843        -0.381684      0.181416      0.154727
O       9.82437     11.64016      7.22940         0.179105     -0.394593      0.191211
O       9.59031     11.69998     11.50849         0.705929     -0.595601      0.426008
