  # total energy = -7876.73704440 
CRSYTAL
PRIMVEC
    15.6000000000000000    0.0000000000000000    0.0000000000000000
     0.0000000000000000   15.6000000000000000    0.0000000000000000
     0.0000000000000000    0.0000000000000000    17.640000000000000
PRESSURE
-6.80533 -6.70803 -10.5189 -0.139654 0.063966 0.00619
PRIMCOORD
320 1
Pb       3.77624      3.79296      4.44094         0.784020     -0.004987     -0.822228
Pb       3.95211      3.95890     17.61062        -0.032830      0.445510     -0.041758
Pb       3.80966     15.46719      4.36385         0.137535     -0.094847     -0.637707
Pb       3.77187     15.57321     17.63206         0.034132     -0.095682     -0.079053
Pb       0.00938      3.88305      4.37282        -0.323787     -0.228916     -0.274848
Pb       0.01217      4.00701      0.01124        -0.006379     -0.095829     -0.356593
Pb      15.55341     15.52423      4.33181        -0.022969     -0.261802     -0.214238
Pb      15.43779      0.00351     17.60662        -0.297935     -0.059823     -0.170645
Pb       3.80904      4.00498      8.83501         0.078605     -0.188331     -0.412760
Pb       3.87208      0.02353      8.75538        -0.596162     -0.023915     -0.493863
Pb      15.54269      3.97630      8.83045         0.299998     -0.097466     -0.771699
Pb      15.56375     15.58260      8.70658         0.006924      0.122704     -0.351007
Pb       3.94691      3.63352     13.27549        -0.061038      0.689758     -0.620046
Pb       3.81640     15.50832     13.15412         0.160028     -0.005258     -0.355921
Pb       0.01604      3.83285     13.20191         0.277102      0.214095     -0.476163
Pb      15.54871      0.06191     13.17420        -0.254622      0.182706     -0.383034
Pb       3.90663      7.77540      4.44820         0.013055      0.233308      0.036573
Pb       3.97690      7.79270     17.63493         0.036147     -0.323933     -0.508312
Pb       0.08347      7.90390      4.39783         0.034411      0.203484     -0.256633
Pb       0.08765      7.82097     17.52094        -0.093408     -0.189130     -0.607332
Pb       3.90950      7.88316      8.85495         0.239524      0.016775     -0.678648
Pb      15.51249      7.81008      8.91782         0.008785     -0.516894     -0.921988
Pb       3.92810      7.73596     13.16929         0.088694     -0.104598     -0.216776
Pb       0.11795      7.83634     13.20387        -0.303082     -0.109251     -0.093006
Pb       3.91735     11.65801      4.38232         0.016669     -0.055092     -0.232321
Pb       3.89792     11.67816     17.63000         0.188340      0.049625     -0.704652
Pb      15.54885     11.63116      4.31486         0.179667      0.181969     -0.181807
Pb      15.56635     11.68511     17.48102        -0.151515     -0.041450     -0.175288
Pb       3.83458     11.67219      8.84577         0.101743      0.006691     -0.549499
Pb      15.50234     11.83215      8.79118         0.058234      0.286567     -0.532593
Pb       3.82608     11.83072     13.17005         0.101142     -0.046542     -0.613722
Pb      15.45763     11.71847     13.18716         0.370668     -0.084040     -0.385245
Pb       7.82709      3.63528      4.55725        -0.240535      0.114709     -0.928993
Pb       7.74259      3.87641     17.61620         0.472151     -0.031552      0.004554
Pb       7.63476     15.43806      4.42388         0.095794      0.063175     -0.678979
Pb       7.69682      0.01982     17.60549         0.318277      0.047168      0.300157
Pb       7.57452      3.94802      8.80614         0.155023     -0.024034     -0.713190
Pb       7.78598     15.59579      8.79538         0.346356      0.040456     -0.863396
Pb       8.00936      3.98869     13.17389        -0.280244      0.012964      0.433912
Pb       7.81279      0.08585     13.20883         0.129803     -0.325754     -0.332046
Pb       7.93759      7.69874      4.41636        -0.007189     -0.081842     -0.406326
Pb       7.80087      7.87317      0.05924        -0.059723     -0.303307     -0.637361
Pb       7.70658      7.84404      8.76944        -0.138691     -0.254789     -0.561567
Pb       7.72365      7.91050     13.14184         0.838208     -0.394410      0.511025
Pb       7.84364     11.67909      4.43093         0.016443     -0.204183     -0.190838
Pb       7.77182     11.70486     17.63880        -0.327363     -0.106426     -0.363853
Pb       7.84047     11.75727      8.90149        -0.145899     -0.255919     -1.054174
Pb       7.77729     11.82290     13.18645        -0.539866     -0.068693     -0.253080
Pb      11.71915      3.84641      4.43334        -0.280044      0.019901     -0.349725
Pb      11.77520      3.81795      0.04640         0.026480     -0.150214     -0.687200
Pb      11.53842     15.37859      4.45009        -0.090326      0.182009     -0.299321
Pb      11.45080     15.46332      0.02575         0.664873      0.322635     -0.059335
Pb      11.55445      3.94239      8.83276         0.015620     -0.386631     -1.212001
Pb      11.83631      0.04736      8.73897        -0.240299      0.062497     -0.393180
Pb      11.82585      3.94248     13.19046        -0.344129     -0.170314      0.042845
Pb      11.68116     15.54919     13.16915        -0.077409      0.462015     -0.585858
Pb      11.74614      7.64323      4.30656        -0.102720      0.626974     -0.339309
Pb      11.64291      7.68606     17.52354         0.274731      0.096789      0.041383
Pb      11.56205      7.81576      8.73831         0.107053     -0.258402     -0.138015
Pb      11.73156      7.71013     13.22139        -0.297742      0.011996     -0.489620
Pb      11.68375     11.58898      4.23295        -0.258970     -0.243573      0.533514
Pb      11.78172     11.56912     17.48032        -0.097253      0.270350      0.436210
Pb      11.75546     11.64465      8.68635        -0.420824      0.804449      0.228432
Pb      11.58472     11.65373     13.08158         0.439377     -0.153009      0.023176
Ti       1.85580      1.89549      2.30680         0.187973     -0.547726     -0.102986
Ti       1.95240      1.96183     15.62764        -0.565336     -0.180037     -0.816039
Ti       1.82991     13.53489      2.26536         0.177965      0.223209     -0.358645
Ti       1.89867     13.61498     15.54827         0.213019     -0.176371     -0.989276
Ti      13.52613      1.88622      2.52666         0.416900     -0.379086     -2.130023
Ti      13.71938      2.00492     15.52205        -1.182999     -0.593878     -0.763854
Ti      13.46859     13.62433      2.32474         0.945116     -0.194142     -0.859839
Ti      13.55980     13.63044     15.44119         0.303639      0.601248      0.477380
Ti       1.86108      2.00031      6.77283         0.301766     -1.265288      0.032928
Ti       1.88113     13.58098      6.70818         0.086134      0.830446     -0.923194
Ti      13.63611      1.97414      6.64208        -0.368832     -0.575386     -0.029803
Ti      13.59986     13.66430      6.66632         0.022817     -0.251844     -1.755459
Ti       1.98605      1.91592     11.12153         0.210229      0.584955     -0.436457
Ti       1.83149     13.66944     11.12115         0.900707     -0.433158     -0.520952
Ti      13.64997      2.03479     11.10989        -0.331941     -1.413322     -1.132580
Ti      13.60146     13.65384     11.15286        -0.272051      0.670335     -1.300941
Ti       1.95345      5.86047      2.47098         1.294158     -0.044880     -1.943548
Ti       2.08070      5.82097     15.47891        -0.291614     -0.132081     -0.669692
Ti      13.76783      5.82732      2.34119        -0.503123      0.095177     -0.776655
Ti      13.74332      5.82733     15.51573        -0.156014     -0.285385     -0.055323
Ti       1.95157      5.89836      6.74022        -0.005552      0.137740      0.276701
Ti      13.61039      5.89001      6.68605         0.029964     -0.462279     -0.790754
Ti       1.94312      5.83106     11.22033         0.785871     -1.155597     -1.178366
Ti      13.68013      5.84079     11.08804        -0.208844      0.164471      0.261677
Ti       1.96298      9.72486      2.29295         0.092016     -0.081704     -0.026643
Ti       2.02544      9.71097     15.47735        -0.367074      0.121474     -0.217059
Ti      13.66572      9.75144      2.24117        -0.368562      0.085240     -1.355648
Ti      13.60169      9.72126     15.51715         0.703299     -0.339742     -0.366151
Ti       1.80860      9.72320      6.92071         1.258355      0.303686     -2.588052
Ti      13.60812      9.76792      6.77122        -0.371863     -0.147834     -1.100095
Ti       1.92526      9.72722     11.20856         0.704416      1.199177     -1.002991
Ti      13.60520      9.69445     11.15798        -0.376437      0.200372     -0.302385
Ti       5.80506      1.89697      2.32894         0.315802      0.337996     -0.275923
Ti       5.82856      1.92413     15.69056         0.580642      0.016398     -0.720851
Ti       5.79692     13.51757      2.31995        -0.096054      0.154598     -0.490487
Ti       5.83747     13.61335     15.57527         0.074148     -0.686599     -0.532922
Ti       5.79585      1.88498      6.75655        -0.188907      0.928108     -0.841864
Ti       5.80114     13.70551      6.81585        -0.270621     -1.142753     -1.688120
Ti       5.92484      1.93400     11.15170        -1.898703      0.187641     -1.576377
Ti       5.85546     13.71717     11.03419        -0.677924     -1.122108      0.223889
Ti       5.87456      5.84549      2.43785         0.485616     -0.980659     -0.947426
Ti       5.98354      5.82114     15.47222        -0.443398      0.452980     -1.051019
Ti       5.85803      5.82680      6.75343        -0.256011      0.253627     -0.830539
Ti       5.88939      5.76194     11.32446        -0.768654      0.103093     -0.860758
Ti       5.86057      9.66556      2.37590        -0.072930      0.582534     -0.843548
Ti       5.91096      9.65845     15.42463         0.065795      0.211959      0.676098
Ti       5.82446      9.88927      6.86437        -0.071165     -0.482534     -1.128580
Ti       5.88187      9.72592     11.17323        -0.809149      1.014924     -0.909954
Ti       9.70624      1.85780      2.40897        -1.132170     -0.227799     -1.117712
Ti       9.83434      1.92032     15.64135        -0.010835      0.663277     -0.525535
Ti       9.68157     13.50945      2.25990        -0.175154      0.739011     -0.138383
Ti       9.71436     13.58635     15.51536         0.008865      0.343030      0.149259
Ti       9.67972      1.90675      6.76941         0.553335     -0.392672     -1.157211
Ti       9.69832     13.57779      6.78548         0.254632      0.017325     -1.350438
Ti       9.76361      2.00435     11.09289         0.941043     -0.760365     -0.859927
Ti       9.69547     13.63047     11.08122         0.444102      1.253312     -0.982418
Ti       9.78867      5.72808      2.27422        -0.669496      0.165958     -0.391242
Ti       9.83315      5.79320     15.58528        -0.119397     -0.378343     -0.347138
Ti       9.73300      5.80071      6.73487        -0.519155     -0.058618      0.257355
Ti       9.77374      5.89093     11.09258        -0.000211      0.851544     -0.865863
Ti       9.70409      9.68572      2.30827         0.701983      0.101536     -0.765282
Ti       9.76961      9.71071     15.56210        -0.724514     -0.413722     -1.610119
Ti       9.75355      9.69673      6.82446        -0.909679      0.724319     -2.569393
Ti       9.74296      9.79639     11.09352         0.090121     -1.326275     -0.805482
O       1.91059      1.83069      0.51806        -0.022871      0.194897      0.559160
O       1.93699      1.82049     13.76370         0.034686      0.367767      1.886004
O       1.87251     13.53526      0.43207         0.248518     -0.121256      0.980838
O       1.95180     13.67915     13.64406        -0.133426      0.015250      2.228148
O      13.58209      1.94069      0.65184         0.095715     -0.104013      1.765345
O      13.65466      1.99129     13.66050         0.339176     -0.038407      1.250635
O      13.45048     13.62334      0.48886         0.081005      0.056030      1.199497
O      13.55964     13.54764     13.64457         0.009796      0.409179      0.437034
O       1.91083      1.74773      4.99659        -0.038914      0.874915      0.666121
O       1.90329     13.46577      4.88945         0.094269      0.492664      0.946270
O      13.71077      1.74277      4.82381        -0.249470      0.799089      0.886840
O      13.65044     13.59899      4.81902        -0.209522     -0.063938      1.431783
O       1.98993      1.96310      9.33868        -0.171760      0.001751      0.702901
O       1.81710     13.77650      9.31372         0.027838     -0.658579      1.018485
O      13.56568      1.85041      9.23728         0.039800      0.589268      2.084448
O      13.66885     13.79340      9.29591         0.047899     -0.600784      1.533353
O       2.17814      5.82371      0.59844        -0.533796      0.175047      1.994461
O       2.00665      5.80388     13.62978        -0.345983      0.408198      1.310853
O      13.80724      5.65339      0.48917        -0.242364      0.428764      2.221442
O      13.65398      5.83635     13.70782         0.196693     -0.081534      0.589003
O       1.96590      6.06209      4.93214        -0.436869     -0.826983      1.103007
O      13.63713      5.84448      4.86447        -0.035731      0.046684      0.999193
O       1.94868      5.77883      9.31406        -0.199371      0.208503      1.850567
O      13.68370      5.88651      9.28918        -0.221800     -0.237652      1.045395
O       2.00775      9.69819      0.50402        -0.072058     -0.107520      0.093731
O       1.92004      9.63428     13.66028         0.284159      0.161550      1.168808
O      13.60346      9.82366      0.35942         0.393713     -0.333567      1.758814
O      13.58576      9.77300     13.69920         0.123060     -0.159891      1.001748
O       1.71823      9.62691      4.99687         0.312587      0.393523      2.107775
O      13.55959      9.82911      4.97057         0.399678     -0.328815      1.524042
O       2.06746      9.66093      9.33412        -0.644079      0.339139      1.367562
O      13.44060      9.65163      9.35326         0.989015      0.131551      1.090889
O       5.80659      1.96228      0.47845         0.172499     -0.190630      1.042485
O       5.74473      1.91905     13.86332         0.346189     -0.250653      1.571150
O       5.86040     13.41143      0.48246        -0.408201      0.183735      1.161855
O       5.96122     13.60096     13.72107        -0.171788      0.202488      1.995351
O       5.76852      1.77261      4.92066         0.076728      0.323334      1.635066
O       5.78267     13.59426      4.82322         0.062066      0.341473      2.352239
O       5.85152      2.05473      9.27992         0.357651     -0.346046      2.024589
O       5.74845     13.64843      9.22647         0.309739      0.373898      1.033756
O       5.81235      5.92214      0.52435        -0.265673     -0.083818      2.351480
O       5.99513      5.80347     13.60345        -0.177934      0.015379      1.216916
O       5.90568      5.82254      4.97317         0.070858      0.208784      0.746225
O       5.87416      5.77299      9.45791         0.026556     -0.156968      1.558631
O       5.93577      9.64052      0.49759        -0.441368     -0.270135      2.070313
O       6.04168      9.66164     13.64179        -0.228385      0.570362      0.658254
O       5.83486      9.93987      5.05246        -0.040145     -0.372167      0.987092
O       5.78044      9.72822      9.28053         0.333823     -0.003245      2.014062
O       9.55861      1.85194      0.56273         0.831567     -0.014029      1.644534
O       9.85835      2.04932     13.81729        -0.426932     -0.332778      0.968701
O       9.72309     13.60805      0.44260         0.102459     -0.168171      0.978769
O       9.65497     13.68390     13.69018         0.068195     -0.191049      1.315926
O       9.74873      1.93563      4.90791        -0.287479      0.068783      1.288367
O       9.56675     13.49930      4.93456         0.322665      0.274462      1.634214
O       9.77427      1.95835      9.21281        -0.127504      0.156971      2.294084
O       9.62438     13.65120      9.25437        -0.017978      0.022154      1.315387
O       9.81442      5.79794      0.46179         0.051752      0.296424      1.159522
O       9.90041      5.68452     13.73170        -0.293984      0.222080      2.012552
O       9.65004      5.84742      4.95087         0.287470      0.084318      0.514797
O       9.73314      5.97597      9.20594         0.447094     -0.793521      2.032159
O       9.71015      9.63463      0.45084         0.054664      0.049997      1.338069
O       9.71390      9.71855     13.68913         0.358856      0.225057      1.523724
O       9.82743      9.82521      4.90414        -0.383273     -0.345439      1.830277
O       9.72579      9.72126      9.24037         0.001606      0.115541      2.206787
O       3.94852      2.00192      2.69591        -1.169895     -0.320650      0.205929
O       3.86342      1.85811     16.04782        -0.196481      0.438738     -0.330357
O       3.89250     13.50311      2.67083        -0.439670      0.310519     -0.103471
O       3.82804     13.52468     15.88435         0.540254      0.498547     -0.001118
O      15.57964      1.75497      2.75990         0.193994      0.343339     -0.131508
O      15.55524      2.04087     15.93137         1.493662     -0.438572      0.106996
O      15.56735     13.62460      2.53768        -0.068336     -0.110793      0.312782
O      15.44320     13.51592     15.86272         1.297627      0.188717     -0.120527
O       3.86534      2.00501      7.17386        -0.240894     -0.503258     -0.180927
O       3.80154     13.78995      7.13459         0.618037     -0.202439     -0.125557
O      15.50660      2.00083      7.27176         0.396599     -0.178493     -0.657871
O      15.48530     13.56765      6.99383         0.708769     -0.132721      0.760218
O       3.90768      1.95651     11.55097         0.175027     -0.410598      0.189730
O       3.90169     13.57961     11.59264         0.275969      0.046573     -0.403791
O       0.01779      2.04283     11.52036         0.021996     -0.458549      0.010156
O      15.59465     13.57405     11.50479        -0.784783      0.739342      0.171601
O       3.93638      5.79786      2.97287        -0.431425     -0.147103     -0.507423
O       3.94457      5.74621     15.82902         0.063468      0.289894      0.102775
O       0.04778      5.75370      2.75324        -0.472826      0.197678     -0.056142
O       0.04241      5.75022     16.00637         0.093683      0.486456     -0.299830
O       3.81817      5.71864      7.11648        -0.232610      0.387765     -0.125564
O      15.47699      5.88256      7.22224         0.881217     -0.045562     -0.202330
O       3.92139      5.83810     11.61711         0.374238      0.471102     -0.285711
O       0.03615      5.74651     11.48756        -0.265211      0.523840     -0.021905
O       3.84199      9.61762      2.77691         0.401521      0.273100     -0.248286
O       3.93055      9.64814     15.87174        -0.051858      0.027212     -0.255831
O       0.02900      9.77613      2.70738        -1.009001     -0.653468     -0.145460
O       0.00404      9.75782     15.84876         0.066728     -0.407935      0.160617
O       3.94495      9.81181      7.22168        -1.042534      0.057157      0.213667
O      15.57441      9.78872      7.20667        -0.981078     -0.333015      0.445877
O       3.98547      9.80714     11.55772        -0.440785      0.024115     -0.045620
O       0.02133      9.83200     11.62698        -0.634153     -0.819509     -0.615996
O       7.74049      1.85692      2.87723         0.388266     -0.133547     -0.171156
O       7.84690      1.87766     16.14992        -0.931768      0.269103     -1.075775
O       7.77463     13.48330      2.66161        -0.129089      0.224637      0.008099
O       7.73615     13.52979     16.08929         0.845442      0.651272     -1.002776
O       7.75833      1.99812      7.10703        -0.121766     -0.353943      0.059122
O       7.68071     13.68369      7.12357         0.606520     -0.383655      0.334288
O       7.69563      1.85756     11.61163         1.776273      0.342613     -0.304563
O       7.80394     13.70416     11.43824         0.478732      0.161004      0.061337
O       7.87103      5.93219      2.72102        -0.740417      0.389854     -0.161446
O       7.78905      5.81903     15.93573         1.469275     -0.016425     -0.195411
O       7.77041      5.90305      7.23908         0.072495     -0.144493     -0.316902
O       7.88694      5.86649     11.57972        -0.453884     -0.170939     -0.281014
O       7.82309      9.77780      2.68879        -0.720900     -0.560115     -0.009740
O       7.77372      9.47351     15.99215         0.558750      1.197088     -0.578863
O       7.78196      9.76165      7.19693        -0.183265     -0.076815      0.155021
O       7.87727      9.64600     11.50261         0.270353      0.541746     -0.526397
O      11.57196      1.99346      2.83901         1.129940      0.090601     -0.174977
O      11.73078      1.93028     16.07255        -0.015966      0.187949     -0.220251
O      11.59364     13.57630      2.83665         0.278096     -0.269638     -0.656018
O      11.61150     13.69329     15.92459         0.252357     -0.410805     -0.543116
O      11.67234      1.83629      7.13077         0.136481      0.386165     -0.159321
O      11.64415     13.57913      7.03870        -0.000964      0.240057      0.142598
O      11.71647      2.03664     11.48208        -0.669692      0.087457     -0.277877
O      11.65755     13.72600     11.43916         0.190967     -0.208744      0.268113
O      11.72024      5.85115      2.73053         0.166710     -0.732121     -0.153374
O      11.82531      5.77556     16.04062        -1.110923      0.108890     -0.382332
O      11.65990      5.88828      7.11439        -0.035402     -0.639652      0.020491
O      11.69103      5.79741     11.64037         0.491560     -0.099182     -0.945985
O      11.78088      9.80965      2.67763        -0.214012     -0.521730     -0.317049
O      11.70974      9.67255     15.95585         0.111910      0.116148     -0.353867
O      11.57191      9.88808      7.29758         2.003776     -1.353931     -0.792115
O      11.74082      9.73224     11.59686        -0.458873      0.192799     -0.214696
O       1.84739      3.83452      2.78353         0.402239     -0.228723      0.195168
O       1.93445      3.97366     16.06530         0.451890     -1.794645     -0.600618
O       1.91746     15.49511      2.71323         0.677151      0.250322     -0.170542
O       1.90094     15.52061     16.07021        -0.191622      0.303210     -0.618348
O      13.78753      3.78620      2.87372        -0.746673      0.680411     -0.108178
O      13.68082      3.87486     15.87923        -0.143285     -0.084707      0.223787
O      13.47234     15.47480      2.78461         0.248780      0.777321     -0.216065
O      13.78479      0.02378     15.87464        -0.472353     -0.606381     -0.401036
O       1.86019      3.89294      7.17636        -0.228716      0.371750     -0.499866
O       1.77499     15.53581      7.15890         0.304679      0.831718     -0.079653
O      13.56161      3.82906      6.89839        -0.121939      0.708537      0.282592
O      13.62280     15.52836      6.95494        -0.002625      0.412049      0.633281
O       2.03703      3.89891     11.62327        -0.249488     -0.209439     -0.326708
O       2.04821     15.58297     11.47406        -0.609652      0.196986      0.301014
O      13.65372      3.92867     11.50922         0.161592     -0.045623     -0.324122
O      13.61885      0.07087     11.54128         0.343173     -0.468606      0.225537
O       1.87816      7.75505      2.74582         0.008910     -0.142868     -0.037240
O       1.96574      7.69489     15.91434        -0.185533      0.867894     -0.003242
O      13.66447      7.75832      2.66969         0.216284     -0.155430     -0.301645
O      13.68789      7.69371     15.92108         0.111865      1.214221     -0.084787
O       1.97237      7.86042      7.14017        -0.242769     -0.977225      0.495881
O      13.55321      7.76151      7.06989         0.145395      1.319028      0.169690
O       1.95650      7.84346     11.53025        -0.173753     -0.633778      0.093178
O      13.67179      7.73594     11.52120         0.252228      0.594018     -0.122339
O       1.88089     11.57597      2.75356         0.367803      0.948384     -0.383491
O       1.99722     11.64409     15.91640        -0.343699     -0.118690     -0.285328
O      13.65025     11.66267      2.62691         0.076018     -0.056191      0.096599
O      13.59664     11.68541     15.90160        -0.398644     -0.243393     -0.297985
O       1.92436     11.75131      7.19497        -0.041514     -0.889987      0.473879
O      13.63253     11.67935      7.15840        -0.115533     -0.498139      0.366722
O       1.86820     11.71354     11.57125         0.649824     -0.356290     -0.211700
O      13.62759     11.74138     11.49098        -0.082819     -0.419934     -0.110185
O       5.93839      3.85654      2.81417        -0.276043      0.581532     -0.314036
O       5.93102      3.95115     16.04688        -0.569292     -1.467169     -0.390674
O       5.84642     15.52265      2.70560        -0.233303     -0.242466     -0.327077
O       5.84626     15.55365     16.11288        -0.305520     -0.158557     -0.748536
O       5.85510      3.89166      7.08386         0.091221     -0.062065      0.350030
O       5.90291      0.01964      7.19874        -0.486881     -0.021504      0.038933
O       5.80976      3.81789     11.68896         0.562823      0.503526     -0.602186
O       5.83798     15.52592     11.51336        -0.085596      0.995443     -0.061201
O       5.73443      7.77793      2.91257         0.854945      0.130945     -0.609415
O       5.93537      7.71175     15.78329        -0.878370      0.396392      0.205471
O       5.70681      7.73498      7.21243         0.438154      0.258238      0.003658
O       5.87871      7.87678     11.70729        -0.145729     -0.854533     -0.980561
O       5.71738     11.58006      2.75807         0.400979     -0.266524     -0.359646
O       5.90440     11.62789     15.95126        -0.201951     -0.219326     -0.435878
O       5.78962     11.81493      7.24308        -0.016789     -0.397801     -0.005005
O       6.05840     11.76145     11.55965        -0.490763     -0.710888     -0.429422
O       9.60892      3.86983      2.68939         0.568609      0.256551      0.085597
O       9.79245      3.90437     16.12862        -0.160139      0.080602     -0.624946
O       9.81402     15.49429      2.71174        -0.430841      0.167439     -0.057157
O       9.83661      0.02359     15.98130        -0.962111     -1.031680     -0.530403
O       9.67815      3.84035      6.98520         0.577860      0.954993      0.628853
O       9.62337     15.54607      7.02534         0.070179     -0.025409      0.433151
O       9.68187      3.90885     11.53644         0.226177     -0.674407     -0.747874
O       9.81902      0.07781     11.61866        -0.619509      0.194865     -0.386784
O       9.82274      7.83858      2.73961        -0.140117     -0.451391      0.016449
O       9.86691      7.80401     15.90349         0.024241     -1.318458      0.034764
O       9.77747      7.79828      7.05560        -0.177817     -0.048931      0.169030
O       9.88886      7.75773     11.47060        -0.158807      0.474285     -0.101223
O       9.73636     11.64946      2.69363         0.108184     -0.204722     -0.263480
O       9.75792     11.60888     15.88078        -0.178613      0.881893     -0.205024
O       9.77308     11.62849      7.18374        -1.020734      1.359476      0.324002
O       9.81279     11.74508     11.43702        -0.412124     -0.648199     -0.051235
