  # total energy = -7875.26513324 
CRSYTAL
PRIMVEC
    15.2000000000000000    0.0000000000000000    0.0000000000000000
     0.0000000000000000   15.2000000000000000    0.0000000000000000
     0.0000000000000000    0.0000000000000000    17.000000000000000
PRESSURE
8.38972 8.01637 -2.23945 0.24886 -0.130284 0.029857
PRIMCOORD
320 1
Pb       3.62041      3.84745      4.32949         0.474204     -0.256723     -0.336492
Pb       3.95863      3.89948     16.98698         0.350274     -0.025629     -0.098991
Pb       3.64155      0.20455      4.30794         0.094868     -0.598867      0.237193
Pb       3.85614     15.16727     16.91079         0.032456     -0.154376      0.712681
Pb       0.09154      3.87113      4.21037        -0.851616     -0.089429      0.108902
Pb       0.20578      3.95980     16.93714        -0.866429     -1.095480      0.278867
Pb      15.13927      0.21942      4.51807         0.551027     -0.387215     -0.517505
Pb       0.06772     15.08968     16.96451        -0.244013      0.213480      0.088178
Pb       3.94063      3.88434      8.33960        -0.255547     -0.452187      0.663186
Pb       3.83890     15.02583      8.72186        -0.132515      0.137335     -0.769815
Pb       0.15817      3.59582      8.67108        -0.113814      0.470171     -0.310805
Pb      14.89987     15.15312      8.47008         1.197302     -0.034153      0.802263
Pb       3.85945      3.57799     12.52977        -0.320376      1.429377      1.165324
Pb       3.81630      0.08583     12.87314         0.098332     -0.429719     -0.509368
Pb      15.13507      3.87809     12.67886         0.218066     -0.430269      0.162261
Pb       0.08169     15.19730     12.88453        -0.403403      0.284690     -0.595053
Pb       3.71118      7.64295      4.35037        -0.089075     -0.139943     -0.166468
Pb       3.70839      7.64149     16.95312         0.788527     -0.447379      0.279425
Pb      15.07403      7.79976      4.37655         0.080893     -0.331821     -0.495696
Pb      15.05152      7.44099     16.87882         0.731967      0.760698      0.274043
Pb       3.85977      7.58297      8.32686        -0.034174     -0.223789      0.601876
Pb      15.04332      7.52207      8.48773         0.131710      0.025368      0.309151
Pb       3.64317      7.46493     12.68043         0.902549     -0.105652      0.078018
Pb       0.03269      7.46299     12.82386        -0.251635     -0.176438     -0.449401
Pb       3.54105     11.44665      4.35447        -0.040001      0.129452     -0.087989
Pb       4.06047     11.42751      0.22180        -0.545060      0.192917     -0.344064
Pb      15.19798     11.45920      4.20383        -0.608820     -0.067761      0.090704
Pb       0.12657     11.32672     16.83055        -0.226283      0.180432      1.152743
Pb       3.64053     11.37403      8.57727         0.168677      0.491004     -0.541410
Pb      15.14034     11.35019      8.63225        -0.221671      0.214615     -0.463734
Pb       3.72118     11.25839     12.66424        -0.344839      0.238091      0.367824
Pb      15.10720     10.99939     13.01331         0.934203      1.329087     -1.171799
Pb       7.55512      3.84066      4.28722        -0.272943     -0.456678     -0.175846
Pb       7.61627      3.79352      0.13622        -0.473909     -0.249488     -0.420575
Pb       7.55774     15.08233      4.24048        -0.114083      0.519370     -0.529980
Pb       7.69775     15.08602     16.95639        -0.512946      0.375481      0.619133
Pb       7.69514      3.55884      8.44038        -0.222087      0.990791      0.196048
Pb       7.65845      0.05770      8.55628        -0.456723     -0.361896      0.063556
Pb       7.72583      3.71512     12.77814        -0.891174      0.751589      0.120190
Pb       7.58475     15.10268     12.85983        -0.163166      0.132429     -0.777526
Pb       7.72027      7.44840      4.04939        -0.247612      0.720768      0.863103
Pb       7.70329      7.71473      0.14288        -0.596596     -0.266556     -0.511257
Pb       7.54542      7.63010      8.26954         0.143561      0.023391      1.314047
Pb       7.48490      7.66171     12.63012        -0.210415     -0.776237      0.355278
Pb       7.46478     11.36399      4.31428         0.498581     -0.188947     -0.394752
Pb       7.51904     11.47540     16.99338        -0.348498     -0.150622     -0.039447
Pb       7.62726     11.48880      8.66888        -0.114164     -0.224430     -0.748339
Pb       7.65295     11.36477     12.71131        -0.378462      0.128613      0.175412
Pb      11.33846      4.05127      4.07088         0.912730     -1.708645      0.874477
Pb      11.28844      3.60759     16.94558         0.545001      0.430732      0.355565
Pb      11.50438     15.15318      4.14090        -0.401043      0.094813      0.195537
Pb      11.41643      0.00982     16.98467         0.000512     -0.059970     -0.095711
Pb      11.46605      3.78855      8.46893        -0.397689     -0.138532     -0.025350
Pb      11.34693      0.03407      8.46933         0.017037     -0.192441      0.194957
Pb      11.26216      3.58678     12.76560         0.513960      0.987303      0.585050
Pb      11.38670      0.01842     12.63011         0.286169     -0.254860      0.448868
Pb      11.48291      7.45904      4.09205         0.033010      1.357550      0.590311
Pb      11.41895      7.59612     16.93546        -0.361757     -0.431933      0.077180
Pb      11.30793      7.51475      8.71141        -0.097847      0.474120     -0.814546
Pb      11.39857      7.67119     12.96208        -0.665569     -0.986725     -0.481044
Pb      11.36374     11.30157      4.18957         0.315599     -0.161703      0.093139
Pb      11.48631     11.43317     16.70214        -0.524996     -0.090330      1.213928
Pb      11.34301     11.37924      8.52459        -0.184203      0.231477     -0.216855
Pb      11.24905     11.13615     12.46077         0.061790      1.679353      1.598357
Ti       1.90655      1.90799      2.11752        -0.532660      0.112478     -0.308299
Ti       1.95004      1.90366     15.02155         0.321878     -0.194522     -1.233365
Ti       1.82279     13.37217      2.33883        -0.043165     -0.334177     -0.738012
Ti       1.85749     13.26986     14.92769         1.524219      0.413681     -1.102504
Ti      13.35278      1.83994      2.18668        -0.167794      1.491477     -0.344646
Ti      13.38098      1.88188     15.04318        -0.630038     -0.259896     -1.252926
Ti      13.23699     13.26491      2.16445         0.987513     -0.317393     -0.666412
Ti      13.29361     13.23312     14.83205        -0.482949      1.981214     -1.022212
Ti       1.88460      1.89662      6.66235         0.332951     -1.092561     -0.333996
Ti       1.70186     13.29671      6.66523         2.296820      0.773238     -1.522584
Ti      13.25211      2.00667      6.43541        -0.276922     -0.256255     -1.202055
Ti      13.17293     13.29843      6.56734        -0.420008     -0.507780     -1.600802
Ti       1.88379      1.79937     10.77714        -0.271068      0.309362     -1.647241
Ti       1.78780     13.26182     10.82476        -0.706495     -0.503718     -1.187039
Ti      13.29667      1.93950     10.73272         0.142490     -1.120620     -0.225527
Ti      13.22688     13.26416     10.83527         0.558320      0.637789     -0.952850
Ti       1.89611      5.76081      2.23560        -0.146265     -0.016639     -0.134907
Ti       1.91173      5.66639     14.91240         1.359600     -0.336295     -1.056700
Ti      13.37617      5.71613      2.16407         0.668287     -0.756945     -0.815749
Ti      13.26225      5.61929     14.94720        -0.976955     -0.661292     -0.928791
Ti       1.76207      5.70537      6.53043         0.838309     -0.198872     -0.433997
Ti      13.22823      5.78091      6.55672         0.415589     -1.521998     -1.448184
Ti       1.87572      5.71591     10.69308         0.172779     -0.817431     -0.726487
Ti      13.17885      5.70820     10.78602         0.381688      0.355592     -0.457528
Ti       1.86398      9.46675      2.23016        -0.037994      0.761784     -1.409066
Ti       1.97909      9.49424     15.01603        -0.379459     -0.680707     -0.722213
Ti      13.31490      9.48997      2.06357        -0.231174      0.481617      0.794706
Ti      13.28196      9.45435     14.89257        -0.062679     -0.366082      1.238185
Ti       1.79408      9.45941      6.58097        -0.509051      1.337493     -0.647949
Ti      13.16576      9.50469      6.58353         0.176583      0.136433     -1.813679
Ti       1.80783      9.47730     10.68280        -0.463719     -0.199950     -0.637221
Ti      13.24564      9.46680     10.75563         0.224325     -0.274957     -1.909141
Ti       5.68244      1.89686      2.31143         0.227429     -0.382456     -1.376111
Ti       5.71654      1.88495     15.01171         0.156950      0.938068     -0.551336
Ti       5.59977     13.28053      2.41729         0.095147      1.213471     -1.664010
Ti       5.60976     13.30702     14.96306         0.428632     -0.853725     -0.011833
Ti       5.71714      1.80913      6.53886        -0.874548      0.024794     -1.174937
Ti       5.64635     13.24570      6.48512        -1.715791      1.144829     -0.808892
Ti       5.72799      1.86965     10.76213         0.541415     -0.572884     -1.050626
Ti       5.57174     13.21212     10.87343         0.535251      1.893471     -1.026086
Ti       5.68395      5.70279      2.36226        -0.169927     -0.835643     -2.019492
Ti       5.73927      5.69024     14.92013        -0.551207     -0.759427     -1.217587
Ti       5.74151      5.68788      6.49232        -0.481360     -0.008962     -1.440166
Ti       5.69891      5.64920     10.70756         0.086682      0.282239     -0.929819
Ti       5.63842      9.45715      2.39898         0.119887      0.701774     -1.688503
Ti       5.64139      9.41772     14.97116         0.823508      0.414575     -0.176476
Ti       5.60937      9.53821      6.41761         1.062135      0.075414     -1.027825
Ti       5.55782      9.49958     10.67205         0.242915     -1.795469     -0.924361
Ti       9.52328      1.92757      2.33739        -0.285748     -1.118590     -1.406568
Ti       9.48231      1.86075     15.01199        -0.436263      0.266055     -0.532654
Ti       9.44946     13.20297      2.22320        -0.068015      0.948447     -1.141870
Ti       9.50426     13.26252     14.93695        -0.555080      0.195087     -1.153313
Ti       9.53651      1.90703      6.35863         0.513596     -0.077854     -0.849787
Ti       9.38305     13.34841      6.48320         1.161832     -0.976662     -0.778533
Ti       9.50199      1.92609     10.76220        -1.292883     -0.454889     -0.771629
Ti       9.44153     13.32771     10.76485        -0.235805      0.319902     -0.481577
Ti       9.55295      5.67179      2.12399        -0.255094      0.436638     -1.974187
Ti       9.46461      5.64343     15.02066         0.206487      0.368307     -1.177504
Ti       9.48333      5.74738      6.51046         0.231582      0.017651     -0.312558
Ti       9.41141      5.68190     10.63841        -0.879656      0.226913     -0.572826
Ti       9.50366      9.48555      2.15916         0.386263      0.122724     -0.763660
Ti       9.46206      9.49049     14.99518        -0.855875     -0.963372     -0.700828
Ti       9.41079      9.53991      6.48637         0.839110      0.202360     -0.910223
Ti       9.35707      9.41945     10.67700         0.009243      0.308725     -1.868281
O       1.83212      1.84513      0.29949         0.037825      0.361122      0.578097
O       2.02014      1.79070     13.08162        -0.374289     -0.014707      0.671206
O       1.85297     13.36641      0.54851        -0.375295      0.019829     -0.622103
O       1.88715     13.23217     13.07185        -0.278018      0.326073      1.292383
O      13.28698      1.84084      0.36918         0.320650     -0.126251     -0.241437
O      13.12164      1.97343     13.20874         0.475491     -0.507323     -0.009236
O      13.26371     13.38891      0.33079        -0.050366     -0.500914      0.807836
O      13.22503     13.17709     12.99192         0.364081      0.371024      1.168996
O       1.91185      2.01563      4.81368         0.118092     -0.339715     -0.336391
O       1.88673     13.42921      4.71704        -0.333616     -0.846385      0.685027
O      13.18084      1.99568      4.59159         0.256024     -0.514244      0.441043
O      13.23061     13.16618      4.71253        -0.333580      0.719943      0.913359
O       1.83430      1.79244      8.82950        -0.486354      0.467487      1.449456
O       1.80280     13.32638      8.91425         0.163138     -0.606687      0.377205
O      13.34484      1.83824      8.91601        -0.241287      0.737740      0.576100
O      13.18132     13.36123      8.95935         0.147865     -0.434802      0.183265
O       1.76215      5.64084      0.39294         0.441049      0.533615      0.256482
O       1.86792      5.63859     13.07944        -0.062504      0.381521      0.394526
O      13.26921      5.80548      0.31706         0.858534     -0.152219      0.438327
O      13.36053      5.75937     13.07914        -0.681455     -0.224176      0.636926
O       1.85285      5.76623      4.70674         0.484846     -0.368401      0.321739
O      13.28879      5.72199      4.70717        -0.453816      0.303939      0.092474
O       1.83115      5.68207      8.85438        -0.109278      0.371335      0.579327
O      13.13261      5.74634      8.90090         0.820695      0.320539      0.955309
O       1.87395      9.42913      0.36624        -0.121370      0.203853      0.358768
O       1.94303      9.41934     13.13440        -0.264615      0.543907      1.089205
O      13.29978      9.53788      0.27793         0.154310     -0.174961     -0.652307
O      13.32850      9.46518     13.10000        -0.547389     -0.044281     -0.555524
O       1.88024      9.56199      4.76568        -0.076291     -0.160772     -0.593977
O      13.35437      9.46643      4.69141        -0.609433      0.105982      0.919522
O       1.88669      9.54284      8.85344        -0.396517     -0.323866     -0.107746
O      13.15773      9.34544      8.88291         0.476744      0.305639      0.687371
O       5.69373      1.92054      0.43872         0.006048      0.174846      0.774522
O       5.67475      1.97938     13.15472        -0.157018     -0.745767     -0.071993
O       5.68233     13.26437      0.39228         0.123151      0.050369      1.044676
O       5.65403     13.25789     13.14492        -0.076000     -0.041821     -0.180671
O       5.60338      1.89030      4.71386         0.211786     -0.314274      0.310979
O       5.72578     13.36372      4.59645        -0.091483     -0.452988      1.013962
O       5.75337      1.92396      8.92342         0.051049     -0.239199      0.042389
O       5.62998     13.33159      9.03935         0.022425     -0.439118      0.236968
O       5.65982      5.58948      0.33977         0.257279      0.065027      1.875351
O       5.66725      5.61045     13.05543        -0.001939      0.367245      1.217899
O       5.77118      5.88343      4.57673        -0.092413     -0.706803      0.369813
O       5.69963      5.70239      8.78759        -0.080759     -0.057020      0.713864
O       5.57146      9.56776      0.41055         0.348271     -0.309450      1.080910
O       5.65785      9.40720     13.15721        -0.371823      0.381004      0.381546
O       5.68450      9.55832      4.48119         0.297591     -0.134625      1.353126
O       5.54406      9.42059      8.83422         0.290547      0.425924      0.858374
O       9.48529      2.00658      0.41388        -0.169738     -0.183734      0.404824
O       9.41206      1.96921     13.14381         0.380102     -0.522379      0.133787
O       9.41023     13.34394      0.34046         0.435755     -0.713509      0.705205
O       9.46958     13.20275     13.08564        -0.284883      0.510456      0.996727
O       9.55273      1.97847      4.51469         0.076961     -0.249579      0.701723
O       9.52175     13.25052      4.64909        -0.469020      0.442915      0.543483
O       9.51443      1.97612      8.95677        -0.510539     -0.327268      0.007607
O       9.46651     13.34227      8.94233        -0.624693     -0.314162     -0.121981
O       9.50942      5.75946      0.28002        -0.077372     -0.623730      0.836428
O       9.54664      5.60501     13.17378        -0.082372      0.592805      0.525069
O       9.56568      5.65227      4.63212        -0.098341      0.405030      0.588057
O       9.35243      5.68605      8.79310         0.298354     -0.186204      0.505054
O       9.46876      9.49298      0.32507         0.303032      0.031594     -0.142037
O       9.47486      9.34622     13.12585        -0.196854      0.273285      0.349881
O       9.47978      9.50860      4.67642        -0.170523      0.033848     -0.433694
O       9.34856      9.53564      8.80779         0.123748      0.095783      1.399888
O       3.75490      2.05207      2.48940        -0.634728     -0.545405      0.498320
O       3.82714      1.81174     15.32862        -0.427028      0.164903     -0.068156
O       3.74290     13.30558      2.48819         0.094593     -0.012534      0.615254
O       3.76688     13.25864     15.39625        -0.609555      0.397508     -0.539036
O       0.03190      2.01707      2.56068        -0.165958     -0.643452      0.164386
O       0.06645      1.82936     15.13592        -0.514687      0.290389      0.199286
O      15.14223     13.32471      2.56490        -0.605304     -0.095687      0.126067
O       0.00970     13.31773     15.28517        -0.382638     -0.203071     -0.223451
O       3.78951      1.81552      6.86770        -0.114635     -0.016658      0.021132
O       3.70987     13.34954      6.87526         0.785500      0.373815      0.202401
O      15.08407      1.90361      6.64311         0.843485      0.571825      0.665547
O      15.08428     13.26569      6.80135        -0.660107     -0.840263      0.499111
O       3.75445      1.78971     10.95265         0.021148     -0.049924      0.295909
O       3.64568     13.35751     11.05404         1.479914     -0.433261      0.188732
O      15.16078      1.96647     11.09789        -0.274099     -0.145966      0.065343
O      15.12318     13.27166     10.96200        -0.746433     -0.506169      0.504357
O       3.84501      5.75852      2.50663        -0.975524     -0.090792      0.317787
O       3.80696      5.65741     15.21938        -0.950864     -0.032332      0.303137
O       0.09037      5.88037      2.63612        -1.200830     -0.469031     -0.399312
O      15.17842      5.66806     15.18998         0.224328      0.049846      0.512856
O       3.84039      5.75220      6.73949        -0.775556     -0.076894      0.030362
O      15.15653      5.63717      6.73203        -0.562481      0.405233      0.789166
O       3.78290      5.71389     10.97032        -1.152641      0.045265      0.035954
O      15.16727      5.66154     11.10959        -0.703631      0.057889     -0.496379
O       3.79313      9.58179      2.60755        -0.372899     -0.379708      0.005642
O       3.77851      9.50006     15.35178        -0.113684      0.064232     -0.189346
O      15.19925      9.50444      2.55116        -0.192124      0.095304      0.002495
O       0.01337      9.48865     15.17605        -0.408410      0.218045      0.002781
O       3.79666      9.43270      6.62337        -0.212818     -0.340017      0.565838
O      15.12764      9.69680      6.75067         0.317842     -0.874950      0.830613
O       3.64339      9.45956     10.95131         1.832727     -0.285536      0.500405
O      15.10351      9.56505     11.01704         0.008126      0.349697      0.138118
O       7.56411      1.94602      2.55900         0.363697      0.333124      0.386612
O       7.55107      1.83641     15.31684         0.968803      0.158433      0.061245
O       7.57243     13.28554      2.49611         0.809589      0.106544      0.565528
O       7.58570     13.30659     15.24000         0.488144     -0.024220     -0.022824
O       7.62895      1.88702      6.66066         0.077834      0.076721      0.559679
O       7.49290     13.23260      6.77146         1.164246      0.042279      0.363251
O       7.56768      1.88566     11.00925         0.114200      0.108780      0.356913
O       7.54694     13.26963     11.05223        -0.448968     -0.518167      0.504682
O       7.68939      5.65880      2.43602        -0.991072      0.157335      0.374286
O       7.61065      5.73646     15.21837        -0.185084     -0.132616      0.273736
O       7.59211      5.59575      6.60312         0.854740      0.115297      0.445354
O       7.51236      5.61929     11.02650         0.723992      0.066592      0.183385
O       7.63686      9.46423      2.34212        -0.728366     -0.035213      0.723397
O       7.54912      9.50836     15.28286         0.333995     -0.361545      0.067069
O       7.55830      9.59367      6.72827        -1.149430      0.330116      0.253567
O       7.45920      9.51114     11.05085         0.261826      0.481359     -0.058190
O      11.45542      1.98836      2.36148        -0.633423     -0.020983      0.633624
O      11.33428      1.92127     15.30837         0.973994     -0.448395      0.221856
O      11.35516     13.28854      2.51671         0.105144      0.182314      0.120365
O      11.41262     13.32141     15.23200         0.083794     -0.095525      0.091073
O      11.39099      1.89976      6.84018        -0.822315     -0.594049      0.122082
O      11.30968     13.37220      6.91469        -0.024263     -0.018821     -0.204425
O      11.32436      1.86333     10.96524         1.099558      0.238341      0.625832
O      11.27016     13.34863     11.02312         1.054969     -0.074531      0.389460
O      11.46189      5.72692      2.42059         0.090126      0.119330      0.315434
O      11.41259      5.65391     15.31301         0.313344      0.242813     -0.201704
O      11.39796      5.89154      6.84377        -1.691049     -0.812057      0.045413
O      11.25593      5.72227     10.87778         1.021149      0.672411      0.471463
O      11.42539      9.48794      2.47636         0.223968     -0.376757      0.095350
O      11.38071      9.48108     15.15361         1.023004      0.184369      0.145481
O      11.32772      9.33480      6.74971        -0.132416      0.609736      0.501784
O      11.26133      9.36992     11.00289         0.407847     -0.581489      0.063575
O       1.82118      3.88540      2.63836         0.624851     -0.377813     -0.417682
O       1.92759      3.77207     15.23788        -0.294748      0.099415      0.344145
O       1.82475      0.08884      2.64760         0.312070      0.295546     -0.105303
O       1.91504     15.19641     15.29923        -0.078490     -1.039759     -0.214513
O      13.45134      3.87747      2.42343        -0.326068      0.129465      0.177192
O      13.26791      3.76070     15.18961         0.385229      0.681320      0.536758
O      13.23153     15.19768      2.55253         0.280556     -0.274477      0.106339
O      13.35309     15.19036     15.18353        -0.331610     -0.748080      0.102187
O       1.85138      3.78329      6.89227         0.265574      0.649082      0.102028
O       1.59666     15.19342      6.77843         0.628864      0.077551      0.071275
O      13.13802      3.79964      6.84380         0.254174      1.068282      0.166933
O      13.29856      0.04049      6.82530        -0.613653     -0.700013     -0.535944
O       1.79931      3.78815     10.94075         0.369853     -0.372361      0.025356
O       1.72238     15.13123     11.03016         0.216918      1.027220      0.459902
O      13.15791      3.83084     11.07604         0.213124     -0.028425     -0.215156
O      13.24120      0.02323     11.03994        -0.012134      0.107318      0.516026
O       1.92889      7.65177      2.58735         0.564070     -0.354645      0.209519
O       1.90893      7.52119     15.23231        -0.105126      1.019490      0.168509
O      13.40672      7.62953      2.49419        -0.623959     -0.091909      0.131232
O      13.28887      7.59110     15.15656        -0.060205      0.265680      0.219163
O       1.85345      7.61873      6.73351        -0.278817     -0.750352      0.678970
O      13.24767      7.60607      6.78463         1.215591      0.052225      0.529938
O       1.67568      7.62686     11.03298         0.595661     -1.062104      0.080245
O      13.35817      7.65217     11.09027        -0.573886     -1.686991      0.085915
O       1.88472     11.36801      2.56819        -0.135638      0.692455      0.428688
O       1.85669     11.41361     15.25691         0.022828     -0.693639     -0.143999
O      13.28249     11.36296      2.49188         0.028248      0.552500     -0.071811
O      13.32260     11.41786     15.15061         0.183796     -1.096344      0.340070
O       1.99676     11.37278      6.87343        -0.482225      0.485358      0.108022
O      13.14615     11.36538      6.88178        -0.237016      0.791866      0.484163
O       1.88060     11.29354     11.02418        -0.088240      1.456109      0.321678
O      13.06685     11.33419     10.93960         0.232149      0.437132      0.035462
O       5.62938      3.77785      2.66319         0.562170      1.096227      0.191610
O       5.64094      3.75888     15.26038         0.305227      0.421414      0.412196
O       5.63952     15.19940      2.65507         0.160595      0.633862      0.024690
O       5.68221     15.19223     15.24285        -0.134323     -0.518838      0.076647
O       5.67568      3.78039      6.68191        -0.074609      0.109264      0.352547
O       5.75528     15.16432      6.91979        -0.067647     -0.229759     -0.055189
O       5.63082      3.75155     11.01976        -0.154762     -0.062074     -0.269115
O       5.65545     15.14392     11.09854         0.029290      0.514147      0.393909
O       5.72394      7.59270      2.49685         0.205852      0.262590      0.074221
O       5.55950      7.52518     15.27832         0.380418      1.382350      0.110314
O       5.83167      7.62450      6.73840        -0.884627      0.208734     -0.270862
O       5.63137      7.54152     11.08044        -0.002736      0.957278     -0.275637
O       5.71706     11.47283      2.55687         0.031629     -1.539060      0.160340
O       5.65576     11.44116     15.33697         0.147689     -1.060562     -0.154418
O       5.55895     11.41688      6.79055         0.208356     -0.576326      0.046217
O       5.61381     11.33864     11.03114        -0.309996      0.036294      0.288684
O       9.51757      3.85761      2.48458         0.045971     -0.408051      0.222996
O       9.52125      3.72781     15.24093        -0.454287      1.134485      0.454417
O       9.41162      0.04340      2.38140         0.554015     -0.707485      0.768230
O       9.54422      0.01815     15.28641        -0.313672     -1.326030     -0.099531
O       9.51692      3.70358      6.83667         0.237005      1.554754     -0.279451
O       9.45300      0.02955      6.91752        -0.241739     -0.114578     -0.559116
O       9.40348      3.82767     11.09138         0.294561     -0.440609     -0.266929
O       9.37934      0.02430     11.07921         0.103011     -0.097793      0.246529
O       9.55603      7.55151      2.33106        -0.136871      0.459689      0.795496
O       9.63972      7.57797     15.36075        -0.593971      0.451744     -0.396833
O       9.36532      7.64106      6.80331        -0.067328     -1.515781     -0.303785
O       9.20692      7.61395     10.86309         0.567897     -1.039809      0.340368
O       9.54704     11.32244      2.49581        -0.290342      1.243168      0.166082
O       9.55308     11.35878     15.12374        -0.157112      0.516044      0.559139
O       9.51209     11.43961      6.79602        -0.008183      0.375144      0.391171
O       9.48346     11.36677     10.97919        -0.622165     -0.249966      0.066031
