  # total energy = -7877.38927242 
CRSYTAL
PRIMVEC
    15.2000000000000000    0.0000000000000000    0.0000000000000000
     0.0000000000000000   15.2000000000000000    0.0000000000000000
     0.0000000000000000    0.0000000000000000    17.000000000000000
PRESSURE
7.91371 7.88947 3.90491 -0.267703 0.123564 -0.063104
PRIMCOORD
320 1
Pb       3.67950      3.93350      4.39958        -0.075029     -0.007374     -0.710978
Pb       3.70997      3.79132      0.05243         0.612958      0.113080     -0.301917
Pb       3.72744      0.10443      4.27283        -0.243128     -0.069036     -0.440665
Pb       3.93894     15.19060      0.08001        -0.327851      0.531043     -0.438775
Pb      15.14741      3.92276      4.30555         0.398534     -0.534874     -0.504923
Pb      15.19190      3.83008     16.84084         0.145682      0.027749      0.229348
Pb      15.18081      0.09890      4.21386        -0.005651     -0.645112     -0.335446
Pb       0.17242     15.19862     16.86520        -0.300462     -0.151850      0.438565
Pb       3.75349      3.72399      8.48524         0.119380      0.220480      0.082452
Pb       3.78395     15.18490      8.28527        -0.066913     -0.131549      0.948939
Pb      15.06761      3.72979      8.47515         0.078081      0.015119      0.261403
Pb      15.16181      0.01896      8.61915         0.169369      0.276560     -0.325362
Pb       3.84896      3.70963     12.70031         0.147912      0.291967      0.202387
Pb       3.99371     15.03641     12.69604        -0.851713      0.499437     -0.073531
Pb       0.17890      3.58685     12.85708        -0.177958      0.382479     -0.369286
Pb       0.04443     14.97396     12.64647         0.529872      0.091887      0.340977
Pb       3.64733      7.77235      4.37623         0.120304     -0.265735     -0.448253
Pb       3.81271      7.74924      0.17546         0.372314     -0.626672     -0.734266
Pb      15.15184      7.76641      4.25836         0.821103     -0.412313     -0.133272
Pb       0.13883      7.65125      0.02472         0.077891     -0.076510     -0.282581
Pb       3.71322      7.45978      8.52437         0.500796      0.584388      0.093105
Pb      15.05429      7.63328      8.56975         0.396553     -0.503766     -0.203137
Pb       3.75686      7.50334     12.74993         0.337297     -0.238599     -0.138607
Pb      15.14278      7.38875     12.78926         0.090671      0.315416      0.052910
Pb       3.62331     11.65841      4.37158         0.025627     -0.977643     -0.650204
Pb       3.89423     11.46580     16.87979        -0.074551     -0.906453      0.337292
Pb      14.96654     11.59661      4.38537         0.614168     -0.177950     -0.404388
Pb       0.03104     11.44073     16.82231         0.509147     -0.518509      0.331688
Pb       3.66150     11.42060      8.38344         1.270912     -0.515772      0.090027
Pb      15.07062     11.30825      8.65175        -0.326141      0.045669     -0.182728
Pb       3.75864     11.26831     12.68121         0.085678     -0.156950      0.152307
Pb      15.13899     11.33345     12.57891         0.521267      0.042574      1.013418
Pb       7.73756      3.87163      4.14586        -0.976395     -0.397832      0.252438
Pb       7.66723      3.86395      0.09944        -0.500853     -0.014311     -0.045314
Pb       7.58868      0.04989      4.13216         0.056023     -0.055687      0.282936
Pb       7.56929     15.14744      0.06240         0.230817      0.494743      0.101685
Pb       7.72285      3.79005      8.25406        -1.117909     -0.197926      0.972864
Pb       7.51533     15.16753      8.45618         0.578207      0.315546      0.292087
Pb       7.49398      3.69620     12.64472         0.104828      0.234770      0.258003
Pb       7.54021      0.02379     12.71709         0.367131      0.270872     -0.012876
Pb       7.59318      7.65865      4.30110         0.151901     -0.388631      0.141627
Pb       7.59249      7.50768      0.06871        -0.542884     -0.092374      0.059609
Pb       7.60406      7.57037      8.44313        -0.573620      0.122903     -0.792853
Pb       7.57823      7.44237     12.66275        -0.603164      0.098877      0.897151
Pb       7.57196     11.44615      4.15979         0.369750     -0.171156      0.253447
Pb       7.53038     11.40179      0.12889         0.117057     -0.038542     -0.697581
Pb       7.49967     11.36944      8.33492        -0.154873     -0.329011      0.214909
Pb       7.53336     11.39405     12.71461        -0.234651     -0.325388      0.022587
Pb      11.50523      3.85926      4.04428         0.164906     -0.859016      0.365956
Pb      11.49735      3.84231     16.93474        -0.448376     -0.696891     -0.169656
Pb      11.47207      0.06494      4.15101         0.207263     -0.350788     -0.026513
Pb      11.35684     15.17926     16.92805        -0.030241      0.294097      0.223758
Pb      11.38576      3.65600      8.39477         0.476705      0.090759     -0.131561
Pb      11.21947     15.07900      8.77420         0.162953      0.210922     -0.693886
Pb      11.41483      3.73011     12.68597        -0.669553      0.302264      1.008632
Pb      11.25227      0.06108     12.89859        -0.206005     -0.580813     -0.106510
Pb      11.47617      7.58086      4.12170         0.096549      0.717680      0.642231
Pb      11.43867      7.66111     16.97434         0.009499     -0.275213     -0.256469
Pb      11.39835      7.62232      8.47815        -0.111646     -0.436552     -0.278888
Pb      11.31029      7.47512     12.73819        -0.344252      0.398115     -0.373121
Pb      11.43381     11.59281      4.17287         0.004090     -0.495626      0.118076
Pb      11.44065     11.19379     16.97568        -0.184631      0.487683     -0.567924
Pb      11.14157     11.43524      8.60233         0.267313     -0.309523      0.389087
Pb      11.25280     11.07011     12.94631         0.427431      0.752257     -0.593685
Ti       1.84910      1.87377      2.17790        -0.093215      0.405435      0.163711
Ti       1.95980      1.84009     14.91960         1.705836      0.456973      0.569579
Ti       1.92830     13.26884      2.08026        -1.228763      0.055952      2.111579
Ti       1.98886     13.27326     14.95596        -0.716230     -0.080425     -1.211375
Ti      13.34581      1.80517      2.01553        -0.353119      0.650861      1.827912
Ti      13.36197      1.74431     14.97955        -1.050818      1.488626      0.559958
Ti      13.33332     13.26840      2.04883         0.829499      0.995539      0.437527
Ti      13.33811     13.18797     14.93722        -0.225717     -0.036997      0.325583
Ti       1.84306      1.90662      6.50043        -0.250785     -0.092358      0.417373
Ti       1.80762     13.26001      6.49251         0.141707      0.996858      0.607029
Ti      13.30975      1.78627      6.39532        -0.423745      0.623302      0.123993
Ti      13.25723     13.25306      6.82747        -0.114844      0.457437     -1.883525
Ti       1.99624      1.76196     10.81231        -0.587583      0.395270     -0.686816
Ti       1.95988     13.16944     10.59919        -0.293190      0.842548      1.904399
Ti      13.30426      1.80330     10.98911         1.139641      0.346378     -1.549492
Ti      13.21951     13.25675     10.85464        -0.786887     -1.466825     -0.504543
Ti       1.87809      5.64927      2.21282         0.041568      0.098193     -0.128237
Ti       1.85693      5.69814     14.99268         1.367823     -0.068220      0.804377
Ti      13.37999      5.74897      2.11755         0.116727     -0.671587      0.206292
Ti      13.17509      5.73825     14.93122         1.560966     -0.740873      1.511328
Ti       1.76154      5.73029      6.61508         1.254323     -0.363109     -1.006852
Ti      13.25702      5.66639      6.39737        -0.392805     -0.354497      1.532434
Ti       1.77739      5.61442     10.76665         0.454982     -0.912587     -0.655249
Ti      13.15810      5.54682     10.77671         0.864654      1.103674     -1.083215
Ti       1.91432      9.51142      2.20336         0.616449      0.509070      0.830547
Ti       1.94254      9.46957     14.86349         0.545876     -0.363320     -0.238885
Ti      13.39473      9.54527      2.11985         0.475226     -0.185883     -0.218131
Ti      13.41316      9.42414     14.89396        -0.713684     -0.131292     -0.039326
Ti       1.88989      9.47677      6.58238         0.191305     -0.716486     -1.604459
Ti      13.30120      9.44723      6.54644         0.090816     -0.805448     -1.195854
Ti       1.86164      9.39244     10.73838         0.911198     -0.847449      0.536918
Ti      13.28399      9.37424     10.84875        -1.553684      0.714380      0.308554
Ti       5.60327      1.92092      2.24631         0.388069      1.343980     -0.212094
Ti       5.70912      1.86985     15.02984        -0.680862      1.137117     -0.248200
Ti       5.67073     13.32989      2.34524        -0.237901     -0.435964     -0.392957
Ti       5.77745     13.29151     14.91397         0.349055     -0.351719      0.067459
Ti       5.68609      1.92230      6.40767         0.322099      0.253621      1.906484
Ti       5.73532     13.33339      6.40349        -0.387661     -0.444593     -0.066533
Ti       5.68614      1.82994     10.59516         1.372508      0.511451      0.893049
Ti       5.66081     13.21757     10.71163         0.535325      0.069944      0.720165
Ti       5.64107      5.73916      2.45063         0.217267     -0.577558     -1.499400
Ti       5.64296      5.66857     15.15473        -0.430764      0.439716      0.167882
Ti       5.60407      5.70140      6.47858         1.291742      0.451816     -0.897462
Ti       5.60030      5.65357     10.64517        -0.294307     -0.422792     -0.794824
Ti       5.77498      9.51527      2.34213        -1.481708      0.179640      0.340734
Ti       5.69500      9.43001     14.93536        -0.056953     -0.659194      1.143106
Ti       5.73012      9.49521      6.34909        -0.336964     -0.308756      1.848647
Ti       5.67446      9.43008     10.62136        -0.959901      0.075205     -1.390449
Ti       9.51238      1.87705      2.27953        -0.484972     -0.459981     -1.442588
Ti       9.40540      1.83638     15.02687         0.952542      0.394345     -0.080675
Ti       9.54754     13.34145      2.13839        -0.032794     -1.382100      0.951194
Ti       9.53958     13.25468     15.04021        -0.618608     -0.347534      0.501067
Ti       9.53816      1.83776      6.35687         0.442241      0.385859     -0.272686
Ti       9.50996     13.25516      6.46499        -0.062965      0.445844      0.421678
Ti       9.57345      1.88800     10.72375        -2.665070     -0.318094      0.548334
Ti       9.41954     13.27922     10.93493         0.205925     -0.402602     -0.654782
Ti       9.55916      5.75732      2.27960        -1.133590      0.042811     -1.113247
Ti       9.46697      5.66781     14.95294        -1.408200     -0.967010      0.045400
Ti       9.47324      5.65074      6.35740         0.267714      1.080971      0.884169
Ti       9.34975      5.64331     10.62617        -0.083470      0.248507      1.008888
Ti       9.61184      9.53354      2.20437        -0.720983      0.124765      1.027532
Ti       9.42645      9.39969     15.02886        -0.201063      0.027141      0.872923
Ti       9.52638      9.46806      6.31516        -1.008767     -0.240906      0.379363
Ti       9.32977      9.45419     10.70343         1.612411      0.267005      0.266262
O       1.98889      1.91203      0.40655        -0.690783     -0.048462     -0.230082
O       2.10623      1.82851     13.15196        -0.365030     -0.296283     -0.630794
O       1.88844     13.39121      0.31708         0.011037     -0.703897     -0.269402
O       1.94673     13.23466     13.15827         0.095921      0.311944      0.417556
O      13.38039      1.86154      0.28928         0.038910     -0.226031     -1.433431
O      13.25493      1.64060     13.20256        -0.059244      0.823744     -0.669812
O      13.45598     13.30937      0.29651        -0.028293     -0.313002     -0.217082
O      13.35950     13.06121     13.15748        -0.272698      0.803411     -0.006384
O       1.74884      1.94956      4.74775         0.389384     -0.244896     -0.574739
O       1.75042     13.27192      4.74421         0.176289      0.005692     -0.292225
O      13.42179      1.85514      4.62965        -0.591843     -0.251584      0.114672
O      13.20617     13.21184      4.96388        -0.108261     -0.104690      0.536932
O       1.85286      1.75832      9.03314        -0.022973      0.200488     -0.442943
O       1.98252     13.30253      8.85204        -0.286796     -0.522138     -0.351458
O      13.21021      1.87162      9.19113         0.359103      0.368223     -0.238074
O      13.28649     13.16856      9.01474        -0.185823      0.171873     -0.597512
O       1.84064      5.59538      0.40436        -0.056789      0.011630      0.734145
O       1.91723      5.79197     13.23605        -0.293533     -0.373562     -1.234442
O      13.26530      5.75719      0.33356         0.175426     -0.130072      0.614729
O      13.25589      5.68664     13.19816        -0.297592     -0.053080     -0.846475
O       1.82763      5.66140      4.78631         0.399907      0.009896      0.088107
O      13.30073      5.70813      4.65560        -0.152901      0.087110     -1.253036
O       1.80084      5.69577      8.96451        -0.134085     -0.425786     -0.286802
O      13.25051      5.49398      8.92546        -0.116384      0.315842      1.434519
O       1.80083      9.59376      0.44952         0.566955     -0.258488     -0.989066
O       1.94884      9.43864     13.02959        -0.013683     -0.433021      0.970906
O      13.42760      9.31864      0.32426        -0.412539      1.050070      0.436346
O      13.34980      9.39066     13.10898        -0.218835      0.323488     -0.472828
O       1.90874      9.40455      4.72247        -0.345461     -0.059893      0.720489
O      13.48366      9.32769      4.73370        -0.951898      0.771977      0.403821
O       1.81855      9.45865      8.97080        -0.022383      0.037705     -0.736868
O      13.24541      9.48449      9.06000        -0.030190     -0.569667     -1.167125
O       5.65294      1.92654      0.46119         0.044033     -0.463010      0.108701
O       5.58279      1.95800     13.18749         0.506427     -0.507739      1.005591
O       5.65595     13.24259      0.51688        -0.005353     -0.153854      0.444504
O       5.84403     13.33221     13.10221        -0.810798     -0.386164      1.485323
O       5.62556      1.79506      4.68553        -0.040771      0.122682     -0.585295
O       5.73205     13.42397      4.63519        -0.049357      0.162192     -0.268456
O       5.63703      1.81451      8.86535         0.175219      0.297749     -0.780956
O       5.59930     13.21075      8.99784         0.465979     -0.047131     -2.040633
O       5.68524      5.76956      0.58683         0.149362     -0.067689      0.719953
O       5.65197      5.72427     13.38800         0.048970     -0.163738     -0.833360
O       5.73061      5.62175      4.63444        -0.259301      0.176435      0.609135
O       5.66688      5.58459      8.86244        -0.093732      0.294511      0.082597
O       5.55222      9.59736      0.58487         0.325829      0.144319     -0.384186
O       5.56200      9.30069     13.22763         0.406505      0.209730     -1.839373
O       5.83743      9.43826      4.60359        -0.388926      0.287926     -0.875517
O       5.69851      9.47514      8.78755         0.255110      0.259177      1.304667
O       9.38897      1.63139      0.46250         0.390906      0.843529      0.792273
O       9.47661      1.70891     13.20568         0.239023      0.616311      0.296328
O       9.45227     13.32223      0.41812         0.120820     -0.021123     -1.054857
O       9.47310     13.26010     13.25495         0.025545     -0.229837     -0.027231
O       9.60967      1.95153      4.54831        -0.349398     -0.698372      0.566682
O       9.65881     13.19861      4.73082        -0.171239      0.346007     -0.570819
O       9.58802      1.88095      8.97281         0.227806     -0.264897     -0.652938
O       9.44896     13.31949      9.13127         0.034940     -0.158856     -0.768593
O       9.45809      5.74707      0.46079         0.577840     -0.124755      0.736989
O       9.32094      5.58701     13.17420         0.409591      0.172175      0.272508
O       9.61884      5.64309      4.61043        -0.288358     -0.122633     -0.558281
O       9.30676      5.79643      8.87312         0.619657     -0.353173     -0.325853
O       9.64524      9.41262      0.44005        -0.054725      0.147960     -0.889858
O       9.55521      9.47246     13.27175        -0.770839     -0.077785     -0.333005
O       9.33779      9.63575      4.57043         0.750191     -0.315276     -0.251027
O       9.45394      9.40201      8.91810        -0.082082      0.093062      0.200016
O       3.71509      1.91371      2.60343         0.290100     -0.088766      0.383845
O       3.82159      1.88465     15.47140         0.301915      0.015721     -0.382553
O       3.70891     13.42069      2.71327         0.248543     -0.343691     -0.286754
O       3.82253     13.20645     15.28592         1.481875      0.229166     -0.184799
O      15.12374      1.83475      2.47923         1.250120      0.092376      0.106344
O       0.11417      1.92189     15.13307        -1.785729     -0.380984      0.414813
O      15.17288     13.20446      2.70362         0.100907      0.507133     -0.905716
O       0.05119     13.27436     15.19591        -0.731549      0.346029      0.356321
O       3.73994      1.86022      6.93788         0.902080      0.201615     -0.983074
O       3.79793     13.29005      6.68152        -0.181908      0.059355      0.194960
O      15.14987      1.93004      6.84366         0.331824     -0.104853      0.673130
O      15.17583     13.31372      6.90263        -0.180800     -0.706504      0.592140
O       3.88802      1.88224     11.08461        -0.919879     -0.019514     -0.120333
O       3.80233     13.04322     11.11967        -0.794891      1.035156     -0.277518
O       0.00027      1.77670     11.24086         0.358694     -0.277530      0.116442
O      15.19904     13.23590     11.02460         1.033265      0.166431     -0.090620
O       3.75184      5.71140      2.70236        -0.126297     -0.034798     -0.111055
O       3.78292      5.59849     15.48936         0.098989      0.001223     -0.156348
O      15.19027      5.60192      2.66059        -0.475800      0.391090     -0.677027
O       0.01170      5.80558     15.29836        -1.012778     -0.295859     -0.041405
O       3.80757      5.80558      6.84406        -1.058591     -0.678231      0.002075
O      15.17385      5.72182      6.69679        -1.544294     -0.521588      0.789072
O       3.72272      5.50846     11.07891         0.648379     -0.239491     -0.104449
O      15.07770      5.75934     11.14908         0.455742     -0.369649     -0.331299
O       3.77627      9.38846      2.64592         0.190966     -0.017127      0.028244
O       3.82118      9.61782     15.27812        -1.010657     -0.129885      0.426466
O       0.05756      9.53979      2.45373        -1.352878     -0.017630      0.788101
O       0.05458      9.33641     15.23646         0.663843      0.126493      0.109689
O       3.81371      9.39055      6.75550        -0.331267      0.393008      0.116853
O       0.01726      9.40026      6.79338        -0.989429     -0.019013      0.930990
O       3.81333      9.43411     10.94421        -0.848588      0.103635      0.386657
O      15.13576      9.21678     11.01514         1.214579      0.051640      0.147063
O       7.53805      1.81177      2.57043         0.432540      0.184704      0.332996
O       7.59504      1.70521     15.32545        -0.631399      0.215976      0.090313
O       7.60987     13.31964      2.57071        -0.889984     -0.216889     -0.028382
O       7.63120     13.41441     15.48781        -0.827037     -1.007294     -0.725903
O       7.61989      1.88229      6.81010        -0.377774      0.131116     -0.484126
O       7.67606     13.30133      6.84348        -1.023463     -0.017694     -0.027284
O       7.62134      1.65062     11.02125        -0.327343      0.934726     -0.013496
O       7.55150     13.26213     11.27113        -0.231969     -0.049383     -0.624400
O       7.72940      5.57256      2.62828        -0.841661      0.683526     -0.024754
O       7.57824      5.82192     15.43774         0.267454     -0.540232      0.120474
O       7.53446      5.57542      6.80801         1.066807      0.107242     -0.396068
O       7.46855      5.71768     11.14427         0.992355     -0.262420     -0.389986
O       7.65694      9.65846      2.38781        -0.375739      0.238724      0.408518
O       7.54066      9.18106     15.33930         1.720082      1.108627     -0.010226
O       7.55772      9.57074      6.64106         0.574857      0.194757      0.759506
O       7.49817      9.33415     11.11966         0.452720      0.532008     -0.025690
O      11.38689      1.80967      2.50245         0.612560     -0.199955     -0.132112
O      11.39911      1.86949     15.41094         0.272366      0.053851     -0.372229
O      11.44839     13.35965      2.46925         0.213088     -0.196467      0.280533
O      11.40919     13.15325     15.47044         0.637243      0.182740     -0.660521
O      11.44976      1.86685      6.78092        -0.571837     -0.063016      0.070779
O      11.30702     13.26048      7.07668         0.693118      0.097946      0.060120
O      11.37694      1.85278     11.16025         0.454612      0.130738      0.486647
O      11.31639     13.23096     11.09623         1.461152     -0.268944      0.142332
O      11.45544      5.79381      2.64523         0.573427     -0.463843     -0.776931
O      11.33578      5.58978     15.25818         0.442395     -0.045452      0.147738
O      11.36444      5.87766      6.73888        -0.913016     -0.755317      0.266198
O      11.23064      5.46093     11.10427         0.882733      0.576263     -0.243916
O      11.50815      9.52267      2.50967        -0.464126     -0.353319      0.134519
O      11.45501      9.53408     15.22278        -0.747404      0.102704      0.544489
O      11.36323      9.23647      6.71303         0.098517      0.645185      0.188414
O      11.30683      9.52994     11.23636         0.002968     -0.346284     -0.549128
O       1.87069      3.72698      2.61894        -0.115338      1.014502      0.174279
O       1.93017      3.77896     15.11041        -0.339623     -0.230239      0.662606
O       1.80721     15.19343      2.48200         0.026573     -0.432729      0.345044
O       1.98618     15.19352     15.40351        -0.034640     -0.552752     -0.581866
O      13.34338      3.69528      2.43780        -0.778541      1.533656     -0.053571
O      13.29784      3.81242     15.44201         0.223600     -0.214672     -0.976536
O      13.36928     15.15395      2.57218        -0.415478     -0.406647     -0.153209
O      13.26712     15.16072     15.26687         0.272249     -1.311436      0.003348
O       1.92520      3.81108      6.86566        -0.036173     -0.254803      0.355141
O       1.89736      0.01516      6.82179        -0.464062     -0.565387     -0.044960
O      13.24370      3.75587      6.79269         0.076268      0.189968      0.085048
O      13.38725     15.16403      6.89230        -0.566288     -0.212853      0.384603
O       1.81051      3.63596     11.03046        -0.146509      1.145983      0.709854
O       2.01883     15.07830     11.03280        -0.224029     -0.759337      0.299493
O      13.40441      3.78405     11.32371        -0.636584     -0.976936     -0.168959
O      13.31568     15.09667     11.01775        -0.222782      0.308936      0.666131
O       1.81549      7.54359      2.46519        -0.014972      0.155868      0.170574
O       2.08303      7.55931     15.38665        -0.330024      1.383977     -0.084447
O      13.36940      7.65270      2.41878        -0.008116     -0.920160      0.577225
O      13.20554      7.62305     15.25826        -0.142226     -1.570587      0.053246
O       1.84628      7.57035      7.00022         0.042069      0.404548     -0.058780
O      13.28099      7.48584      6.87374         0.514520      1.255368      0.653471
O       2.06281      7.37474     11.04570        -0.697581      2.760913      0.151033
O      13.07763      7.49985     11.16110         0.008437     -0.685053     -0.504527
O       1.90964     11.43688      2.58931         0.486239      0.018614     -0.198894
O       1.89003     11.36042     15.20774        -0.313613     -0.072206      0.403751
O      13.27927     11.44418      2.58207         0.027468     -0.613593     -0.210813
O      13.40380     11.26373     15.27933        -0.071554      1.590280      0.266006
O       1.86033     11.32942      6.80410         0.045338      0.959731      0.344248
O      13.29683     11.25122      6.94334        -0.231097      1.025758      0.221385
O       1.88487     11.26158     11.10232        -0.449985      0.575087     -0.747233
O      13.46469     11.32891     11.03833        -0.639960     -0.474049     -0.058846
O       5.70576      3.84092      2.59874        -0.079809     -0.931051      0.309827
O       5.79499      3.73645     15.47951         0.147825      0.240464     -0.249810
O       5.48886      0.05399      2.57255         0.886096     -1.059829      0.176224
O       5.68605     15.16828     15.32542        -0.516585     -0.760888     -0.012319
O       5.63083      3.80318      6.82049        -0.278915     -1.313739     -0.234485
O       5.79388     15.15678      6.91335        -0.634851      0.683807     -0.640279
O       5.78832      3.76681     11.03017        -0.187359     -0.804994      0.143535
O       5.67705     15.12535     10.95550        -0.484362      0.094678      0.522211
O       5.83732      7.61469      2.71401        -0.159595      0.317933     -0.461043
O       5.57926      7.64418     15.57039        -0.360730     -1.027730     -0.052533
O       5.76021      7.58413      6.76706         0.175205      0.175983     -0.129504
O       5.57405      7.50327     10.89906         0.107435      0.582694      0.491373
O       5.49184     11.46639      2.81624         0.801538     -0.059425     -0.682121
O       5.83454     11.30787     15.28377         0.203452      1.841324      0.267579
O       5.67060     11.47579      6.71967         0.091488     -0.780624      0.112817
O       5.60887     11.34678     11.03943         1.217779     -1.136123      0.449108
O       9.54318      3.75411      2.54746         0.395787      0.383633     -0.283474
O       9.38390      3.69618     15.39061         0.188149      0.859704      0.036867
O       9.44904     15.09031      2.60911         0.348680      1.826216      0.559870
O       9.52705     15.15350     15.39679         0.645391     -0.693441     -0.270916
O       9.52849      3.74696      6.75308         0.322741      0.474378      0.086767
O       9.48938      0.07779      6.86316         0.217164     -1.724383     -0.079222
O       9.33977      3.76879     11.01803         0.092973     -0.650991      0.008224
O       9.49955     15.13513     11.20128         0.500981      0.796928     -0.177795
O       9.41053      7.65700      2.65486         0.734332     -0.295880     -0.197488
O       9.58096      7.48902     15.31706         0.382155      1.267639      0.026968
O       9.21105      7.59528      6.59750         0.545629     -0.372833      0.313154
O       9.42522      7.56323     11.09694         0.510209     -0.522035     -0.110453
O       9.58762     11.42784      2.54918        -0.020795      0.159707     -0.171062
O       9.42121     11.34992     15.49846        -0.155427     -0.511156     -0.418586
O       9.43703     11.33151      6.85031         0.781603      0.541301      0.155648
O       9.35268     11.34078     11.11423         0.001624     -0.681934      0.192218
