  # total energy = -7872.31081570 
CRSYTAL
PRIMVEC
    15.2000000000000000    0.0000000000000000    0.0000000000000000
     0.0000000000000000   15.2000000000000000    0.0000000000000000
     0.0000000000000000    0.0000000000000000    17.000000000000000
PRESSURE
6.90935 7.67903 0.895132 0.007906 -0.082606 -0.101656
PRIMCOORD
320 1
Pb       3.60961      3.87279      4.34508         0.030735     -0.650169     -0.357591
Pb       4.05115      3.94225      0.00012        -1.145549     -0.598488      0.115281
Pb       3.59631      0.26478      4.38947         0.362838     -0.497494     -0.679597
Pb       3.90606     15.14028     16.94254        -0.312026      0.634176      0.071403
Pb       0.08138      3.91774      4.20782        -0.796366     -0.622862     -0.395489
Pb       0.23568      3.91322     16.92201        -0.542664     -0.446119      0.132036
Pb      15.13632      0.31546      4.58186        -0.192328     -0.557235     -0.892590
Pb       0.08486     15.03695     16.94843        -0.359300      0.584151     -0.025292
Pb       4.00156      3.89731      8.36883        -0.885350     -0.665565      0.286179
Pb       3.87117     14.94167      8.78790        -0.596254      1.103199     -0.485055
Pb       0.19071      3.60954      8.73506        -0.881385      0.159175     -0.931507
Pb      14.82438     15.11036      8.51124         1.272269      0.310968      0.238682
Pb       3.84934      3.64550     12.53286        -0.096508     -0.097571      0.411877
Pb       3.82034      0.03909     12.88492         0.059069      0.310578     -1.373167
Pb      15.13292      3.89629     12.69493         0.284827     -1.111518     -0.161151
Pb       0.09542     15.18940     12.93763        -0.030175      0.169458     -1.182766
Pb       3.68214      7.67574      4.37664         0.143396      0.617353     -0.205498
Pb       3.75871      7.64554     16.97060         0.238259      0.163239     -0.033955
Pb      15.03088      7.87696      4.38991         0.218756     -0.315096     -0.858805
Pb      15.09694      7.45688     16.82470         0.395713      0.938222      0.446722
Pb       3.87080      7.58304      8.30083        -0.874568      0.177970      0.737265
Pb      15.01729      7.48996      8.51192         0.495728      0.045602     -0.212078
Pb       3.66886      7.40692     12.62594         0.299935      0.724215      0.012616
Pb       0.00196      7.36911     12.78752         0.056656      0.314047     -0.125606
Pb       3.46247     11.50417      4.40635         0.887364     -0.615804     -0.753498
Pb       4.11204     11.46470      0.33080        -0.511738     -0.834110     -0.850164
Pb      15.09249     11.52146      4.23018         0.402926     -0.093563     -0.315797
Pb       0.15986     11.36575     16.86621        -0.601348     -0.128901      0.274660
Pb       3.63856     11.40185      8.57412         0.486592     -0.294878     -0.132827
Pb      15.06778     11.38586      8.63107        -0.037201     -0.127887     -0.554984
Pb       3.68603     11.27231     12.69853         0.561610     -0.143802     -0.486676
Pb      15.12845     10.96541     13.03777         0.084308      0.704522     -0.640157
Pb       7.55074      3.83371      4.29063         0.165494     -0.543664     -0.961000
Pb       7.58649      3.79621      0.15209         0.057364     -0.160813     -0.788953
Pb       7.55685     15.08672      4.24833         0.368995      0.305945      0.018531
Pb       7.68887     15.06340     16.96872        -0.136345      0.463163      0.183172
Pb       7.71827      3.59960      8.38097        -0.002901      0.714761      0.131450
Pb       7.66377      0.00099      8.52367        -0.495455     -0.246725     -0.703343
Pb       7.70272      3.79528     12.80085        -0.438193     -0.326380     -0.431539
Pb       7.57874     15.06947     12.89235        -0.342861      0.903647     -1.007057
Pb       7.78191      7.49520      4.04533        -0.582235      0.999511      0.865163
Pb       7.66469      7.73233      0.17674        -0.604757      0.107218     -0.550702
Pb       7.51257      7.65094      8.23926         0.507755     -0.362338      1.147497
Pb       7.40478      7.59877     12.63593         0.760334      0.115285     -0.354715
Pb       7.45149     11.36521      4.30856         0.025686     -0.115995     -0.747652
Pb       7.52513     11.50263      0.02488         0.808363     -0.606076     -0.173731
Pb       7.58582     11.56184      8.65175        -0.222518     -0.266462     -0.165630
Pb       7.57332     11.32798     12.73857        -0.301500     -0.064658     -0.864933
Pb      11.39115      4.00878      4.06006        -0.176377     -1.156004      0.075030
Pb      11.31733      3.58777     16.97327         0.089237      0.521403     -0.118758
Pb      11.52674     15.13733      4.09010        -0.069715      0.647216      1.010884
Pb      11.46150     15.17123     16.97028         0.001680     -0.317567     -0.466454
Pb      11.48291      3.80271      8.46681        -0.708206      0.158917     -0.384305
Pb      11.31055      0.04622      8.43939        -0.057762     -0.396584     -0.488480
Pb      11.27952      3.62588     12.82152         0.013234      0.617470     -0.775318
Pb      11.40083     15.18489     12.65876         0.197279     -0.386450      0.165702
Pb      11.52570      7.56415      4.06239        -0.735535      0.589667      0.297390
Pb      11.42392      7.56037     16.91239        -0.435873      0.040967      0.162306
Pb      11.26692      7.49465      8.73434         0.001416      0.080530     -1.229478
Pb      11.36198      7.59517     12.98672         0.010932     -0.455544     -1.001668
Pb      11.37104     11.27239      4.14914         0.427146      0.361888      0.138249
Pb      11.50387     11.47142     16.67940        -0.640119      0.119214      1.319878
Pb      11.27731     11.44526      8.53411         0.688617     -0.472385      0.054415
Pb      11.23494     11.18792     12.46504         0.800401      0.339581      1.082217
Ti       1.81172      1.86803      2.05013         0.076658      0.825992      1.166933
Ti       1.84144      1.89314     14.86220         0.870336      0.957355     -0.377849
Ti       1.94615     13.31114      2.05133        -0.883463      0.073069      0.103469
Ti       1.99713     13.22597     14.86278        -1.495246      0.043267      0.332112
Ti      13.27622      1.97910      2.03552         0.898350     -0.658999      0.959028
Ti      13.31691      1.86128     14.84565         0.034481      0.114419      0.463915
Ti      13.46118     13.41015      2.22029        -0.085049     -1.016581     -1.193440
Ti      13.45659     13.32379     14.87477        -1.004697     -0.627223      0.405866
Ti       1.89635      1.92549      6.60441        -0.718837     -0.352552      1.252978
Ti       1.92212     13.35284      6.63595        -1.520766     -0.030965     -0.464444
Ti      13.14953      1.95316      6.45955         0.921783     -0.242130     -0.440955
Ti      13.22340     13.17971      6.50576         0.187242      1.195487     -0.447510
Ti       1.90052      1.80483     10.57981        -0.099467     -0.444786      0.869341
Ti       1.78925     13.17233     10.86874         1.106573      1.205676      0.646779
Ti      13.25354      1.78213     10.64972         0.799190      0.178075      1.053047
Ti      13.37183     13.12921     10.86668        -0.939717      0.585241     -0.193271
Ti       1.85126      5.82082      2.32005        -0.987219     -1.293712     -0.735970
Ti       1.98723      5.70629     14.95801        -0.285661      0.180875     -0.586940
Ti      13.26861      5.74491      2.06485         1.140880     -0.255239      0.021040
Ti      13.16588      5.59832     14.93145         0.457540      0.099941     -0.731903
Ti       1.71636      5.68531      6.57789         0.060790      0.109407     -0.284732
Ti      13.23649      5.69776      6.39697        -0.326150     -0.081755     -0.675411
Ti       1.90410      5.59323     10.59536        -0.450262      0.498949     -0.226203
Ti      13.17446      5.56113     10.80977        -0.175101      0.499656      0.883977
Ti       1.74999      9.47176      2.05598         0.309989      1.390737     -0.494943
Ti       1.96446      9.44431     14.93983         0.046280     -1.290169      0.743047
Ti      13.18706      9.56541      2.00762         0.885251      0.165382     -0.189393
Ti      13.23761      9.45270     14.98210         0.736968      0.466915      2.270365
Ti       1.79802      9.58455      6.57398        -0.203829     -0.972224      0.029561
Ti      13.24261      9.45518      6.50585        -0.642347      0.575618     -0.681983
Ti       1.83201      9.33686     10.64400         0.660599     -0.323887     -0.046598
Ti      13.31660      9.28379     10.69223        -0.944220      1.108694     -0.285197
Ti       5.61067      1.88187      2.18943         0.186101      0.423595      0.559362
Ti       5.67905      1.89201     15.11143         0.167004     -0.098706     -1.111520
Ti       5.72142     13.35895      2.29200         0.193485     -0.647295      0.714228
Ti       5.72801     13.23326     14.86290         0.138707      0.472449      0.527688
Ti       5.62099      1.92139      6.34729         0.573115     -1.160596      0.791199
Ti       5.66073     13.35043      6.47443        -0.319940      0.411007      0.313392
Ti       5.74732      1.89833     10.52350        -0.702010     -1.467756      0.832776
Ti       5.64762     13.25673     10.74746        -0.045753      0.298125      1.300057
Ti       5.54032      5.68961      2.34479         1.512058     -0.003517     -1.125134
Ti       5.75672      5.79418     14.90488        -0.367074     -0.683137      0.324260
Ti       5.72356      5.71748      6.36445        -0.029356     -0.738261     -0.471859
Ti       5.76665      5.67600     10.58136        -0.029786      0.011384     -0.674909
Ti       5.49655      9.48017      2.38126         1.459621      0.337679     -0.162120
Ti       5.71554      9.46001     14.76965        -1.472970      0.430130      0.589849
Ti       5.76758      9.63842      6.50974        -1.681050     -0.193935     -1.572908
Ti       5.66619      9.46615     10.55587        -0.259054      0.526027      0.433161
Ti       9.46549      1.81937      2.23855         0.032715      0.831119      0.687029
Ti       9.44255      1.81925     14.97942         0.139696      0.672702      0.185369
Ti       9.67919     13.31050      2.22663        -1.244894     -0.348857     -1.029025
Ti       9.52057     13.26649     14.83418         0.452551     -0.143422      1.026642
Ti       9.42535      1.79474      6.30297         0.504173      0.388746     -0.656737
Ti       9.45835     13.15096      6.46834         0.301946      2.089713     -0.742988
Ti       9.41970      1.83109     10.68887         0.093860      0.843996      0.638411
Ti       9.50652     13.32105     10.72919        -0.596058     -0.051738     -0.294908
Ti       9.44556      5.71233      2.03149         0.530775     -0.054703     -0.715114
Ti       9.40638      5.69230     14.96158         0.563881     -1.127380      0.163989
Ti       9.44632      5.60948      6.42845         1.616886      0.032393      1.543311
Ti       9.47280      5.73026     10.66861         0.661441     -0.888437     -0.463989
Ti       9.41944      9.65923      2.15907        -0.392708     -1.159728     -0.454155
Ti       9.38474      9.50920     14.88869        -0.154484      0.429884      0.395877
Ti       9.52083      9.42077      6.38881         1.013566     -0.674483     -0.065342
Ti       9.41082      9.45115     10.54838        -0.302606      0.232322      0.649217
O       1.81542      2.07348      0.32618        -0.074417     -0.562130     -1.056307
O       1.83412      1.99054     12.98575         0.219524     -0.119264      2.041123
O       1.80406     13.18295      0.17879         0.751660      0.343638      1.681199
O       1.84473     13.43604     13.08184         0.607759     -1.087746      0.474238
O      13.28345      1.75334      0.25880        -0.033449      0.438674      0.697894
O      13.37222      1.71729     13.01765        -0.346729      0.625537      1.185794
O      13.43221     13.36491      0.34432         0.013709      0.238627      1.370981
O      13.45505     13.27683     13.12337        -0.437856     -0.058061     -0.411745
O       1.87720      1.89993      4.77867         0.006406     -0.112177     -0.473369
O       1.86325     13.07204      4.81834        -0.082953      1.371604      1.188069
O      13.33767      1.79508      4.66894        -0.545889      0.287805      0.482708
O      13.28963     13.40966      4.71828         0.142667     -0.723520      0.339022
O       1.85844      1.85407      8.77041         0.342515      0.152503      0.687137
O       1.93955     13.24308      9.09623        -0.286610     -0.026052     -0.528494
O      13.21684      1.97851      8.86212        -0.161347     -0.311752     -0.039006
O      13.38826     13.21728      9.04377        -0.500751     -0.379291      0.248822
O       1.94779      5.80690      0.53523        -0.090343     -0.378978     -0.209031
O       1.89991      5.75379     13.14006         0.166530     -0.593575      0.507750
O      13.28478      5.79151      0.27429        -0.380522     -0.048384      0.226339
O      13.11418      5.64470     13.03796         0.640468      0.058878      1.909159
O       1.67684      5.50888      4.71832         0.656418      0.957166      0.393330
O      13.27173      5.81782      4.55612        -0.015743     -0.230018      0.741201
O       1.77609      5.72969      8.80372         0.430108     -0.294115      0.834871
O      13.08419      5.63557      9.05262        -0.011236      0.165712     -1.031621
O       1.89887      9.53578      0.21481        -0.074850     -0.096363      1.517324
O       1.93032      9.30284     13.13782         0.134211      0.401482     -0.220096
O      13.25655      9.41447      0.16593        -0.290472      0.378471      1.522361
O      13.13584      9.37824     13.27761         0.287961      0.350139     -2.859182
O       1.73516      9.67392      4.74476         0.280734     -0.631727      0.513579
O      13.17172      9.60242      4.56963         0.426143     -0.901500      1.547216
O       1.73351      9.28164      8.84538         0.183577      0.483690      1.331693
O      13.32112      9.46059      8.88678        -0.020238     -0.626897      0.997318
O       5.63023      1.82229      0.35255        -0.093020      0.207798      1.065824
O       5.65928      1.72707     13.28205         0.037834      0.407844      0.925558
O       5.77989     13.26726      0.44871        -0.751350     -0.014880      0.776526
O       5.74193     13.43554     13.06272        -0.145223     -0.590848      1.406451
O       5.63227      1.85605      4.55893         0.044195      0.212208      0.059554
O       5.63968     13.28298      4.70420         0.224385      0.156512     -0.466729
O       5.67849      1.85891      8.73521         0.274539      0.350743      0.938681
O       5.55801     13.26629      8.96876         0.466711     -0.530977     -1.007548
O       5.59542      5.73706      0.42295         0.414767      0.203732      1.850822
O       5.62750      5.77951     13.07134         0.475907     -0.188291      1.042946
O       5.80230      5.54422      4.47567        -0.406938      0.809205      2.913802
O       5.83288      5.61706      8.73271        -0.643198      0.226194      1.733555
O       5.65354      9.57881      0.51061        -0.164974     -0.393974      1.135792
O       5.62736      9.46600     12.95485         0.298414     -0.254853      1.181887
O       5.57368      9.57515      4.63040         0.056226     -0.330017      1.390546
O       5.80484      9.57027      8.76015        -0.313462     -0.000366     -0.345642
O       9.54230      1.73603      0.44341         0.309647      0.131165     -0.102029
O       9.48475      1.90166     13.16663        -0.207523      0.054826      0.609308
O       9.58020     13.26418      0.40392        -0.038574      0.648329      1.249691
O       9.38007     13.26421     13.05716         0.116917     -0.384497     -0.117425
O       9.44459      1.98666      4.51205        -0.024945     -0.291149      0.409530
O       9.39773     13.31915      4.68515         0.293505     -0.634088      0.613604
O       9.35178      1.65999      8.88945         0.393275      0.490241      0.717117
O       9.44421     13.38449      8.85090         0.050183     -0.341862      1.254016
O       9.45887      5.73168      0.18895        -0.291207      0.431388      1.446847
O       9.45121      5.43636     13.14028         0.101382      0.465887      1.181561
O       9.42720      5.61986      4.67573         0.238652     -0.032075     -0.903338
O       9.65882      5.59757      8.82015        -0.609841      0.377949      1.606978
O       9.37072      9.54386      0.33563        -0.265113     -0.252224      0.409214
O       9.31698      9.67223     13.07789         0.174540     -0.494780      0.834044
O       9.56151      9.47228      4.56241         0.108361      0.228269      1.334003
O       9.47413      9.46487      8.78680        -0.308878      0.058228     -0.411035
O       3.76108      1.92060      2.56815         0.159925      0.041683     -0.001528
O       3.77301      1.93815     15.34748        -0.558913     -0.580845     -0.333264
O       3.74242     13.19179      2.50974         0.786264      0.351472     -0.301526
O       3.77275     13.36810     15.23032         1.155664     -0.224384     -0.048143
O      15.15070      1.78285      2.60024         0.017275      0.353282     -0.445341
O      15.19678      2.09198     15.19015        -0.156808     -0.054237     -0.107905
O       0.09223     13.37212      2.70556        -0.212935      0.058732     -0.719841
O       0.10602     13.25521     15.31802        -0.446341      0.134925     -0.545371
O       3.82753      1.95024      6.74551        -0.874845     -0.027993     -0.202642
O       3.74747     13.35666      7.02205         0.384365     -0.808467     -0.470758
O      15.12893      1.94146      6.79671         0.079320     -0.094907     -0.024928
O      15.06302     13.24891      7.02313         1.009993     -0.256051     -0.515005
O       3.80929      1.84388     11.01098         0.642160     -0.021740     -0.111521
O       3.84104     13.32208     11.16280        -1.688628     -0.098650      0.196617
O      15.18872      1.99003     10.80764        -0.341166      0.336026      0.309562
O      15.18398     13.16731     11.25062         0.436113     -0.572190     -0.636823
O       3.73165      5.65597      2.83503        -0.297413      0.781095     -0.561930
O       3.85374      5.74878     15.48428         0.235433      0.316134     -1.314018
O      15.17805      5.72364      2.52944        -0.597749      0.058537     -0.095266
O      15.08568      5.77097     15.25924         0.687602     -0.564415     -0.544227
O       3.69172      5.65490      6.72288         1.545283      0.653704     -0.326559
O      15.08443      5.53443      6.95486        -0.433787      0.003316     -0.319372
O       3.80894      5.79233     10.89063         1.080170     -0.373572     -0.180879
O      15.15773      5.52808     11.00061         0.293383      0.030773      0.097008
O       3.63363      9.48707      2.59727         0.359778     -0.414817     -0.090623
O       3.82132      9.43882     15.30501         0.497993     -0.178862     -0.441477
O      15.15138      9.52696      2.43465        -0.790118     -0.147887      0.037924
O      15.19251      9.25146     15.11303        -0.485468      1.069625     -0.116624
O       3.70895      9.47253      6.96518         0.073757     -0.025664     -0.735725
O      15.10740      9.52497      6.92543        -0.092178      0.472908     -0.481443
O       3.78203      9.16373     10.89449        -0.441003      0.606598     -0.172064
O      15.17571      9.49446     11.18114        -0.036805     -0.352295     -0.326440
O       7.59650      1.93480      2.45905        -0.066903     -0.066331      0.065760
O       7.60100      1.89503     15.43819         0.122789     -0.312320     -0.247185
O       7.62502     13.35579      2.64445        -0.640968     -0.598891     -0.412825
O       7.59760     13.33344     15.33696        -0.828736     -0.099170     -0.675871
O       7.56161      1.94483      6.80719        -0.028679     -0.245517     -0.625032
O       7.52849     13.26657      6.97821         0.140595     -0.607242     -0.715484
O       7.56283      1.88105     11.14330         0.217445      0.150870     -0.567550
O       7.52635     13.24329     11.02535         1.259420     -0.579344     -0.176402
O       7.65550      5.71343      2.57693        -0.838588     -0.389700     -0.707869
O       7.59138      5.57593     15.31776        -0.771375      0.422557     -0.296996
O       7.61633      5.62107      6.93143        -1.466850     -0.398219     -1.316788
O       7.68960      5.57956     11.20760        -2.008833     -0.000024     -0.704338
O       7.56178      9.60330      2.68172         0.035747     -0.322265     -0.498037
O       7.49489      9.55210     15.29465         1.283298      0.037994     -0.109261
O       7.62372      9.58027      6.70902        -0.240389      0.237642     -0.150299
O       7.52652      9.63210     11.01361         0.706224      0.332697     -0.095138
O      11.42534      2.00533      2.60791         0.273754     -0.694015     -0.663633
O      11.39804      1.82135     15.30361         0.143450     -0.300182     -0.352172
O      11.50817     13.25919      2.61060        -0.026647      0.311550     -0.333885
O      11.42455     13.25303     15.21473         0.413437      0.584835     -0.427432
O      11.26742      1.78375      6.83768         0.836642     -0.178500     -0.113427
O      11.37542     13.28082      6.92382        -0.541588      0.616340     -0.082340
O      11.35110      1.72012     11.10994         0.163268      0.149809     -0.530341
O      11.35469     13.25916     11.10722         0.440563      0.501946     -0.094695
O      11.37332      5.78817      2.38951         0.086895      0.021945      0.285831
O      11.35263      5.73373     15.31090        -0.460673     -0.152443     -0.203825
O      11.36976      5.74819      6.81456         0.318865      0.363849     -0.246126
O      11.26451      5.84972     11.26593         0.276131     -0.051725     -0.918541
O      11.31099      9.57362      2.41812         1.092987     -0.265080      0.009158
O      11.22585      9.66889     15.15127         0.797009     -0.423853      0.130251
O      11.41923      9.29513      6.93187        -1.076118     -0.080420     -0.545963
O      11.30377      9.28612     10.98434         0.641619     -0.067711      0.243324
O       1.76147      3.73030      2.53849         0.474125      1.036005      0.394956
O       1.96329      3.91292     15.29678        -0.385431     -1.019505      0.027750
O       2.05350      0.03996      2.32374        -0.354240     -1.467686      0.228594
O       1.68658      0.04878     15.10788         0.879127     -0.267887      0.138785
O      13.29379      3.85087      2.34806        -0.001856     -0.116992      0.083370
O      13.19767      3.78089     15.25699        -0.061245     -0.345642     -0.362626
O      13.37499      0.00566      2.55076        -0.960346      0.604496     -0.298732
O      13.44712     15.19638     15.24496        -0.099685      0.057827     -0.198221
O       1.91414      3.77774      6.90754        -0.111724      0.260788      0.067264
O       1.96160     15.19478      6.90909        -0.631225     -0.251341     -0.588097
O      13.07623      3.81760      6.62265         0.004193     -0.064098      0.309310
O      13.28728      0.02579      6.84088        -0.514256     -0.721644      0.103421
O       2.02216      3.74058     10.98818        -0.310998      0.802146     -0.339660
O       1.88044      0.02963     11.13677        -0.221214     -0.954540     -0.436355
O      13.14615      3.73009     11.12722        -0.179732     -0.629357     -0.116704
O      13.43522     15.09400     10.96296        -0.646682      0.589251      0.032653
O       1.76841      7.65820      2.55516         0.718545      0.076130      0.630996
O       1.80429      7.51564     15.38952         1.091708      0.472205     -0.134477
O      13.22995      7.65464      2.47540         0.214439      0.414588     -0.168646
O      13.10904      7.62803     15.24753        -0.184189     -1.180439     -0.139105
O       1.64707      7.58550      6.81855         0.608116     -0.254583     -0.651074
O      13.43776      7.58838      6.67928        -0.134264     -0.487838      0.127018
O       1.84433      7.44277     11.16420        -0.892171      0.661331     -0.732946
O      13.40887      7.48601     11.15292        -0.378415      0.422656     -0.380259
O       1.79214     11.44655      2.55832         0.255362     -0.574292     -0.504236
O       1.83456     11.28117     15.08313        -0.024938      1.517526     -0.339230
O      13.31821     11.40233      2.49538         0.054346      0.070337     -0.247159
O      13.47200     11.43752     15.32873        -0.390848     -0.767599     -0.751706
O       1.80896     11.40590      6.95003         0.387289      0.354191      0.466397
O      13.05595     11.32105      6.89584         0.798523      0.540631     -0.246723
O       2.00495     11.25908     11.06344        -0.049171     -0.079783     -0.061016
O      13.12214     11.20108     11.04331         0.702275      0.746135      0.151886
O       5.68131      3.81683      2.57679         0.079243     -0.488855     -0.608393
O       5.79495      3.79735     15.44253        -0.601991      0.399232     -0.612098
O       5.75132      0.00647      2.61796        -0.700249     -0.297131     -0.467889
O       5.69510     15.12202     15.51939         0.080730     -0.054548     -1.027957
O       5.62380      3.79206      6.73758         0.646994      1.299257     -0.453520
O       5.61013      0.03348      6.74094         0.371602     -0.796156     -0.008031
O       5.64871      3.74438     10.94382         0.201340      1.165444     -0.090439
O       5.71108     15.18609     10.95930        -0.004754      0.423732     -0.124851
O       5.75044      7.55206      2.71793        -0.774565      0.620893     -0.455171
O       5.82114      7.66546     15.28732        -0.236865     -1.315156     -0.225574
O       5.59963      7.62690      6.73333         0.675059     -0.869576     -0.604408
O       5.96744      7.62216     10.79564        -0.359966     -2.016035      0.164848
O       5.59020     11.34659      2.61114         0.281316      1.307120     -0.350614
O       5.72656     11.36077     15.27394        -0.554854      1.058397     -0.309447
O       5.49946     11.42969      6.73519         0.466411      0.168275      0.387419
O       5.52694     11.29048     11.06837        -0.068917      0.913323     -0.194136
O       9.57862      3.88802      2.39651        -0.251744     -0.785672     -0.065420
O       9.52808      3.71983     15.49851        -0.206192     -0.090327     -0.794530
O       9.60498     15.15057      2.64674        -0.343063      0.762667     -0.430849
O       9.41256     15.13783     15.26525         0.444141      0.129316     -0.078162
O       9.61492      3.67000      6.76872        -0.847176      1.014242      0.154351
O       9.38973     15.14737      6.69713        -0.049096     -0.283859      0.350421
O       9.56221      3.73574     11.00410         0.020359     -0.301276     -0.125229
O       9.42544     15.17310     11.19522        -0.057380     -0.463503     -0.460768
O       9.43863      7.65913      2.43807         0.110020     -0.341281     -0.294827
O       9.43405      7.55631     15.05973        -0.075325      1.505266      0.230050
O       9.33012      7.49739      6.77983         0.527099      1.325645     -0.415875
O       9.27595      7.65207     10.87526        -0.092777     -1.602887      0.230923
O       9.54562     11.46873      2.55536        -0.453692     -0.204856      0.207885
O       9.37711     11.53264     15.47531         0.010407     -1.608905     -1.185567
O       9.68419     11.34355      6.79494        -0.836538     -0.737122     -0.183233
O       9.57630     11.36809     10.89995        -0.716682      0.581657     -0.234622
