  # total energy = -7877.48335522 
CRSYTAL
PRIMVEC
    15.2000000000000000    0.0000000000000000    0.0000000000000000
     0.0000000000000000   15.2000000000000000    0.0000000000000000
     0.0000000000000000    0.0000000000000000    17.000000000000000
PRESSURE
8.17285 8.32991 1.67865 -0.333256 0.210255 -0.016395
PRIMCOORD
320 1
Pb       3.87169      3.62344      4.15355         0.233148      0.486128     -0.238961
Pb       3.69225      3.66429     16.84193        -0.017616      0.314542      0.629840
Pb       3.90640     15.04003      4.09067        -0.097948      0.095777      0.053591
Pb       3.59326     15.17369     16.87613         0.192652     -0.263178      0.587980
Pb       0.00211      3.47947      4.15098        -0.091581      1.055284      0.798547
Pb      15.11034      3.89385     16.99060         0.318704     -0.737995      0.514677
Pb      15.12504     14.98013      4.25725        -0.090181      0.245271     -0.412477
Pb      15.02492      0.00181      0.11887         0.682846     -0.153128      0.051070
Pb       3.55925      3.97269      8.57098         0.616149     -0.162328     -0.484107
Pb       3.80479     15.17020      8.47352         0.237329      0.028360      0.463867
Pb       0.05854      3.79251      8.49074        -0.262707      0.071312     -0.732428
Pb       0.03218      0.04813      8.20277        -0.289730     -0.287508      1.379149
Pb       3.72659      3.81253     12.68166        -0.218104     -0.580870      0.834066
Pb       3.71165      0.08428     12.76959        -0.052008     -0.252512     -0.391664
Pb      15.01968      4.04234     12.72648         0.601278     -1.176991      0.214746
Pb      15.08987      0.10670     12.72773         0.305300     -0.559147      0.283679
Pb       3.86977      7.47140      4.14000         0.064474     -0.673895      0.382079
Pb       3.62765      7.52020     16.78568         0.114962     -0.381287      0.615935
Pb      15.19756      7.53871      4.29933        -0.230329     -0.278619     -0.160985
Pb      14.93799      7.52203      0.08742         1.043220      0.183927      0.214386
Pb       3.83165      7.58355      8.55272        -0.486887     -0.063516     -0.092333
Pb       0.12476      7.65309      8.46979        -0.308654     -0.239749     -0.340523
Pb       3.78166      7.72220     12.80546        -0.655326      0.051536      0.099558
Pb       0.02214      7.72699     12.78970        -0.020013      0.303138      0.110459
Pb       4.01154     11.19146      4.13509        -0.690828      0.550930     -0.013399
Pb       3.71266     11.39343     16.89477        -0.103767     -0.372914      0.606756
Pb       0.16111     11.22780      4.18485        -0.751142      0.722581      0.151157
Pb      15.05216     11.36006      0.02613        -0.154404     -0.090221      0.541770
Pb       3.81771     11.41271      8.51797        -0.169983     -0.373035     -0.394155
Pb       0.21947     11.43995      8.33180        -0.661224     -0.078728     -0.024908
Pb       3.85035     11.57057     12.70339        -0.672006     -0.569812      0.668100
Pb       0.05711     11.50143     12.85178        -0.628080     -0.329238     -0.135742
Pb       7.57945      3.80390      4.38975        -0.303782     -0.070300     -0.436541
Pb       7.54463      3.74813     16.87767         0.275238     -0.183826     -0.104085
Pb       7.60265     15.11226      4.21892        -0.049640      0.071624      0.460442
Pb       7.56712      0.00491     16.84104        -0.280875      0.028372      0.809884
Pb       7.31447      3.72147      8.77837         0.698539      0.258858     -0.591604
Pb       7.59527      0.04343      8.64496        -0.121825     -0.319730     -0.397395
Pb       7.67083      3.86309     12.74408        -0.064642     -0.384504      0.371251
Pb       7.47990     14.99540     12.77187         0.157821      0.560651     -0.010842
Pb       7.57200      7.53804      4.04139        -0.107351     -0.399003      1.367502
Pb       7.76339      7.58182      0.02865        -0.155378     -0.149178     -0.436180
Pb       7.47961      7.55181      8.54552         0.566535     -0.013970      0.384458
Pb       7.52638      7.64766     12.66850         1.089142     -0.060284      0.726135
Pb       7.64291     11.45048      4.32435        -0.119240     -0.206279     -0.149534
Pb       7.44450     11.36199     16.93794         0.709636     -0.315036     -0.248447
Pb       7.70093     11.34767      8.68175         0.074889     -0.054878     -0.761373
Pb       7.65836     11.52288     12.77767         0.554871     -0.385323      0.284055
Pb      11.22509      3.78317      4.43938         0.369308     -0.197276     -0.665482
Pb      11.25283      3.74804     16.95363         0.033172      0.394388      0.109070
Pb      11.29979     15.16054      4.26429        -0.040747     -0.209350      0.039896
Pb      11.31843      0.16690      0.09999        -0.087399     -0.781198      0.096180
Pb      11.38338      3.86305      8.50797         0.145352     -0.155459      0.185253
Pb      11.53318      0.00140      8.43649        -0.484493     -0.410856      0.352718
Pb      11.37662      3.83989     12.62943         0.024230     -0.190229      0.642947
Pb      11.42486     15.19614     12.58778         0.122283     -0.140096      0.604151
Pb      11.26483      7.46010      4.31889         0.387822      0.356235     -0.411372
Pb      11.46072      7.65197      0.02060        -0.755694     -0.219625      0.321559
Pb      11.42924      7.59834      8.60793         0.260393      0.367884     -0.098291
Pb      11.54987      7.77779     12.82082        -0.380282     -0.185632     -0.622523
Pb      11.31521     11.39024      4.27859         0.772065     -0.146107     -0.200996
Pb      11.36255     11.36591      0.03928         0.047912      0.090170      0.008584
Pb      11.49044     11.32889      8.32274        -0.284950      0.252702      0.944444
Pb      11.45727     11.49276     12.57873         0.032683     -0.374005      1.141443
Ti       1.91933      1.72950      2.30753         0.049080      0.543101     -1.361070
Ti       1.71182      1.82497     14.95146         0.038620      0.058899     -0.383952
Ti       1.91282     13.20128      2.16492        -0.012735     -0.481346     -1.270647
Ti       1.74475     13.22871     14.98084         0.130697      0.776193      0.982787
Ti      13.23783      1.85011      2.32985        -0.333013     -0.537753      0.412509
Ti      13.25045      1.88923     14.97786         0.380191      0.212131     -0.895754
Ti      13.27000     13.26947      2.27178        -0.312095     -1.701050     -0.667257
Ti      13.22789     13.35679     15.06148        -1.149487     -1.466366     -0.759469
Ti       2.01223      1.79133      6.36147        -1.036169      2.206056     -0.029768
Ti       1.97762     13.38514      6.32512        -0.511054     -2.494638      0.169101
Ti      13.25369      1.89707      6.56601         0.978264      0.604069     -1.467703
Ti      13.26220     13.25740      6.40805        -0.155889     -0.305248     -1.215779
Ti       1.81701      1.89308     10.67122         0.171510     -0.721543      0.251561
Ti       1.79272     13.31226     10.73702         0.563137      1.222629     -0.454237
Ti      13.31726      1.91249     10.71224         0.736875     -0.420627     -1.508295
Ti      13.30156     13.30464     10.65126         0.637715     -0.084685      0.294108
Ti       1.91847      5.55136      2.27298        -0.117491      0.131423     -1.678051
Ti       1.78565      5.58543     14.96868         0.564472      0.831698      0.113822
Ti      13.29937      5.58314      2.31516        -0.194168      0.931508     -0.250425
Ti      13.24196      5.67754     14.98253        -0.662150     -0.608610      0.560371
Ti       1.95373      5.66135      6.31894        -0.636037      0.182227      1.524811
Ti      13.31921      5.68153      6.47252         1.139995      0.591332     -0.782860
Ti       1.90396      5.71740     10.84964        -1.104794      0.896126     -0.805209
Ti      13.31097      5.74594     10.71566         0.542455      1.137956     -0.225355
Ti       1.90394      9.33870      2.18626        -1.076599      0.802590     -1.412501
Ti       1.79245      9.46087     15.12832        -0.117254     -0.161940     -1.527708
Ti      13.25739      9.40782      2.48149        -0.188749      0.763638     -0.415041
Ti      13.22550      9.46590     15.08890         1.036556      1.397220     -1.133177
Ti       2.03490      9.47163      6.37785        -1.581583      0.317482      0.497074
Ti      13.31934      9.45993      6.46336         0.229115     -0.562423     -1.124574
Ti       1.91092      9.57645     10.81259        -0.017560     -0.948999     -0.464100
Ti      13.41186      9.56374     10.70413        -1.337521     -0.537524     -1.085532
Ti       5.76840      1.74888      2.17391        -1.431094      1.245824     -0.791299
Ti       5.60707      1.78956     15.03115         0.681948      0.138862     -0.339244
Ti       5.76757     13.15891      2.18212        -0.565121      0.204874      0.118645
Ti       5.62539     13.18858     14.95537        -0.112078      0.332481     -0.840477
Ti       5.66751      1.88892      6.54941         1.200851     -0.535519     -0.980711
Ti       5.69550     13.22029      6.57300         0.679570      0.789415     -0.964684
Ti       5.65380      1.91236     10.75558        -0.565503     -1.520941     -0.038619
Ti       5.66198     13.26447     10.72298        -0.218264      2.660230      0.537837
Ti       5.70447      5.56488      2.05848        -0.475506      0.024808      0.072902
Ti       5.70249      5.64596     14.97924         0.371564     -0.445477      0.047395
Ti       5.75338      5.66025      6.53802        -0.822562     -0.447832     -1.082241
Ti       5.68993      5.71644     10.97960         0.024769      0.270457     -1.099773
Ti       5.60252      9.31183      2.08289         0.623768      0.353314     -0.152319
Ti       5.63807      9.38291     14.88650         0.285101      0.752869      0.243350
Ti       5.71464      9.40817      6.52263         0.913720      0.260992     -0.020525
Ti       5.70311      9.60007     10.82904        -0.102848     -1.012990     -0.935458
Ti       9.41382      1.85066      2.34046         0.953312     -0.042834     -1.318765
Ti       9.52179      1.84132     14.86481        -1.041925      0.871288      0.254321
Ti       9.48310     13.20395      2.18742         0.183212      0.585616     -0.702800
Ti       9.46721     13.31998     15.10340         0.556839     -0.892345     -1.062653
Ti       9.46641      1.89219      6.59815        -0.664783     -0.313519     -0.995932
Ti       9.38713     13.28576      6.58129         1.558432      0.006328     -0.359877
Ti       9.46351      1.81740     10.70847         0.005413      1.170996     -0.499362
Ti       9.53485     13.25986     10.68068        -0.417951     -0.163871      0.161936
Ti       9.44546      5.57244      2.19578         0.524308      1.063783     -0.634000
Ti       9.54186      5.71642     14.93767        -0.741529     -0.028271     -1.051281
Ti       9.52719      5.69992      6.64033        -0.449041      0.167544     -0.256427
Ti       9.58792      5.70219     10.80673        -0.191401      0.495524     -0.596228
Ti       9.39244      9.44092      2.35071         1.005838     -0.501659     -0.964863
Ti       9.40532      9.47488     14.88703         0.728960      0.670835     -0.919784
Ti       9.48486      9.43577      6.53145        -0.090293      0.047773     -0.260340
Ti       9.56194      9.50514     10.76283         1.175978     -0.017165      0.886759
O       1.76679      1.75576      0.50168         0.363794     -0.091124      0.299825
O       1.72351      1.93992     13.16098         0.393958     -0.138320      0.866848
O       1.83493     13.30992      0.33947         0.176174     -0.242834      0.812079
O       1.75666     13.36808     13.20887         0.336704     -0.493592      0.071752
O      13.26592      1.75243      0.56004        -0.410262      0.320144     -0.557966
O      13.28039      1.88599     13.16653        -0.224224     -0.056188      0.310398
O      13.16953     13.19925      0.43010         0.278946      0.194656      1.005882
O      13.24148     13.27743     13.22438        -0.225678      0.213632      0.803946
O       2.06181      1.83379      4.56737        -0.144648     -0.218949      0.376679
O       2.09986     13.25704      4.57057        -0.341330     -0.140461     -0.132410
O      13.31460      1.92463      4.70863        -0.472256     -0.113510      0.861079
O      13.24884     13.28352      4.59311         0.113523      0.263853      0.814258
O       1.80034      1.77970      8.83638         0.320698      0.421303      0.952843
O       1.69614     13.37366      8.92784         0.686585     -0.362174      0.490256
O      13.50527      1.80449      8.85332        -0.310468      0.290430      0.806280
O      13.33516     13.32176      8.90465         0.158253     -0.011744     -0.986301
O       1.87784      5.59708      0.35833         0.038438     -0.091994      1.223277
O       1.86921      5.47756     13.17041        -0.408697      0.470214      0.170374
O      13.29474      5.69709      0.44218        -0.054918     -0.271694      0.885811
O      13.24482      5.63413     13.22526        -0.034716      0.244572     -0.982775
O       2.05478      5.58420      4.60186        -0.309485      0.211377     -0.791591
O      13.28385      5.69466      4.65834        -0.277399     -0.404684      0.284161
O       1.91690      5.80327      9.02641         0.151906     -0.344587      0.136604
O      13.39412      5.90036      8.97066        -0.113815     -0.581190     -0.464241
O       1.95317      9.35251      0.28299        -0.035330     -0.040877      1.719646
O       1.80077      9.52225     13.24170        -0.127418     -0.112582      0.891371
O      13.39012      9.51157      0.64924        -0.579347     -0.717257     -0.603630
O      13.34846      9.51003     13.29529        -0.032389      0.040635      0.262155
O       1.93525      9.63586      4.61403         0.659233     -0.620437     -0.079096
O      13.21290      9.37645      4.58807         0.329999      0.108805      2.062360
O       2.03199      9.43579      8.97984        -0.377663      0.726202      0.881089
O      13.35645      9.42194      8.88792         0.221648      0.500661      0.289275
O       5.71334      1.77437      0.38708         0.166786      0.000734     -0.233480
O       5.60317      1.71962     13.27818         0.323751      0.304390     -0.895860
O       5.87300     13.19480      0.44936        -0.291881     -0.115143     -0.806561
O       5.66419     13.18705     13.07019         0.133528      0.488454      1.218519
O       5.76857      1.99187      4.70523        -0.225022     -0.244445      0.997313
O       5.85940     13.09986      4.73690        -0.347872      0.170374      0.197912
O       5.55580      1.71713      8.94700         0.443700      0.710666      0.228865
O       5.71988     13.40103      8.98617        -0.346693     -0.301305     -1.655507
O       5.64186      5.67200      0.27909         0.261428     -0.193479     -0.246885
O       5.86209      5.65229     13.16833        -0.561535     -0.173605     -0.381674
O       5.71424      5.69582      4.72601         0.276824     -0.465979      1.266755
O       5.65054      5.77879      9.16153         0.098053     -0.285589      0.275913
O       5.41498      9.33650      0.32212         1.036013     -0.108568      0.511291
O       5.75411      9.69055     13.11769        -0.111871     -0.827945     -0.572242
O       5.80386      9.28836      4.74632        -0.642569      0.641042      0.098720
O       5.56884      9.46492      8.98763         0.350924      0.251345      1.154902
O       9.52885      1.89978      0.47392        -0.032411      0.050653      1.040167
O       9.56763      1.71422     13.10496        -0.215152      0.166627     -0.430551
O       9.41346     13.15875      0.38142        -0.329485      0.167621      0.447041
O       9.53146     13.33819     13.27248        -0.334198      0.215839     -0.020348
O       9.38574      1.79887      4.68060         0.420822      0.398946      1.087367
O       9.37030     13.32754      4.75909        -0.068193     -0.311037      0.234491
O       9.35098      1.97582      8.91523         0.625145      0.301412      0.433629
O       9.51425     13.20917      8.93742        -0.098030     -0.200930     -0.687025
O       9.41125      5.57742      0.39578         0.224869      0.166772      0.245065
O       9.66740      5.78952     13.11481        -0.536530     -0.326666      0.327605
O       9.45104      5.65626      4.82076         0.327932      0.203885      0.112957
O       9.64398      5.61948      8.98211        -0.333992     -0.375777      0.276431
O       9.42925      9.36729      0.56714         0.200190      0.014519     -0.491929
O       9.45648      9.53667     13.05121         0.180283     -0.487328      1.590518
O       9.54588      9.31568      4.73385        -0.385141      0.330689     -0.140626
O       9.66404      9.76770      9.03192        -0.636302     -0.546155     -1.046022
O       3.86953      1.76061      2.39385        -0.716615     -0.006243      0.910487
O       3.65738      1.74534     15.23345         0.171103      0.304598      0.368439
O       3.85127     13.16850      2.34400         0.605790      0.449203      0.800660
O       3.77161     13.18019     15.40334        -0.696522      0.617965     -0.702670
O       0.00509      1.71151      2.65257        -0.424958      0.043962      0.086904
O      15.08549      1.68564     15.47670        -0.036693      0.991505     -0.467264
O       0.00888     13.16200      2.47106        -0.009545      0.374994      0.519532
O      15.03386     13.08969     15.38938         1.436319      0.392519     -0.419509
O       3.84152      1.86633      6.82085        -0.571814     -0.249267      0.061549
O       3.78910     13.26581      6.73255         0.870628      0.341751      0.691170
O       0.04261      1.87252      6.67875         0.327935      0.136871     -0.063465
O       0.07652     13.21349      6.60250        -0.641635      0.375227      0.218852
O       3.79464      1.81735     11.12291        -1.011189      0.355635     -0.047536
O       3.75449     13.45125     11.01667        -0.350369     -0.439987      0.124613
O       0.01953      1.84310     11.20740        -0.550914      0.779383     -0.967798
O      15.15826     13.34207     11.13099         0.141320     -0.431219      0.015532
O       3.82921      5.57280      2.60595        -0.148135      0.679566     -0.299237
O       3.75693      5.52931     15.23779        -0.240495      0.184453     -0.258345
O       0.03894      5.60276      2.55364        -0.287188     -0.451164      0.224242
O      15.09768      5.54521     15.33049         0.840205      0.558825     -0.194828
O       3.81925      5.77019      6.81585         0.033443     -0.444619      0.455463
O       0.02028      5.68175      6.68863         1.078805     -0.066290      0.472324
O       3.70314      5.67827     11.21537         1.762490      0.836005      0.166966
O       0.01939      5.80983     11.11787        -0.805185     -0.330380      0.296585
O       3.73529      9.30947      2.61155         1.627121      0.266181     -0.073993
O       3.79160      9.39272     15.27531        -0.684103     -0.240414     -0.477177
O       0.03368      9.46533      2.72425         0.856644     -0.056869     -0.419476
O      15.14980      9.45384     15.51575        -0.469790      0.366752     -0.334562
O       3.83576      9.51430      6.76589         0.751057     -0.080800      0.246596
O       0.01940      9.51940      6.62121         0.393363      0.455760      0.494348
O       3.78215      9.47728     11.26675         0.647434      0.231571     -0.430655
O      15.18079      9.64301     11.19351         1.265854     -0.373608     -0.190255
O       7.56300      1.80242      2.58937         0.889421      0.453099      0.215219
O       7.60105      1.86064     15.34986         0.283872     -0.179586     -0.451024
O       7.64666     13.28846      2.63675        -0.464859     -0.630675      0.095569
O       7.44715     13.17928     15.28084         1.484103      0.325445      0.116116
O       7.61956      2.03744      6.95198        -0.248321     -0.314627     -0.105942
O       7.64113     13.37404      7.02850        -1.042027     -0.646390     -0.103130
O       7.49877      2.07271     10.92617         0.975669     -0.182729      0.508646
O       7.58089     13.28698     11.04432         0.554055     -0.689631      0.231010
O       7.57170      5.53588      2.57750         0.063427      0.272295     -0.083436
O       7.65812      5.62064     15.30490        -0.944979      0.004555     -0.005975
O       7.62659      5.66911      6.99070         0.069810     -0.393667      0.100499
O       7.69173      5.65779     11.15154        -0.900731      0.140501     -0.177597
O       7.50853      9.34081      2.47251         0.005703      0.148550      0.124062
O       7.57740      9.33466     15.26148        -0.395423      0.133666      0.336333
O       7.56430      9.42014      6.85330         0.442721      0.260704      0.687786
O       7.70193      9.57807     11.03960        -2.291778      0.027764     -0.221737
O      11.33481      1.77887      2.74290         0.522144      0.453169     -0.403134
O      11.36708      1.84644     15.43321         0.416967     -0.001433     -0.337957
O      11.35237     13.17427      2.57599        -0.278744      0.307293      0.197932
O      11.28089     13.20079     15.49564         0.610948      0.471096     -0.429905
O      11.42104      1.92274      7.04072        -0.052529     -0.090888     -0.568196
O      11.35823     13.20293      6.75348         0.340982      0.703987      0.225044
O      11.46330      1.93491     10.89318        -1.142040     -0.437879      0.225107
O      11.40964     13.44389     11.00915        -0.301159     -0.448264      0.125011
O      11.38013      5.63815      2.54597         0.320661      0.122649      0.292297
O      11.32092      5.70012     15.43884         1.832940     -0.260232      0.138205
O      11.48716      5.79356      6.92612        -1.008297     -0.230847     -0.127154
O      11.47375      5.71523     11.15400        -0.391134     -0.438361     -0.314627
O      11.40197      9.39667      2.69041        -1.155934     -0.350742     -0.281762
O      11.40418      9.38524     15.36459        -1.557507     -0.036072      0.138153
O      11.38050      9.46030      6.92330         0.517045     -0.291495     -0.530249
O      11.53108      9.51646     11.16878        -1.218605      0.421168     -0.037419
O       1.94456      3.69009      2.54579        -0.085723     -0.511935      0.150320
O       1.75743      3.69978     15.37912         0.049588     -0.192427     -0.040124
O       1.94432     15.06152      2.63538         0.063500      0.091047      0.032568
O       1.70256     15.12527     15.38386         0.544577     -0.413260     -0.415678
O      13.30634      3.68790      2.60936         0.089146      0.654866     -0.063192
O      13.38977      3.75552     15.24302        -0.993023     -0.596831      0.505758
O      13.26961     15.10187      2.61787         0.049326      0.404078      0.252188
O      13.27558     15.17125     15.34461        -0.613748      0.046127      0.135203
O       1.99169      3.78259      6.77939        -0.132241     -0.154500      0.281227
O       1.95142      0.00758      6.76744         0.139212     -0.694865     -0.263826
O      13.35216      3.81832      6.93573        -0.330374     -0.396559      0.009557
O      13.24389     15.17676      6.68881         0.117546     -0.059360      0.395718
O       1.87291      3.81451     10.92885         0.078498     -0.750566      0.043077
O       1.85487      0.02626     11.18755        -0.049652     -0.074515     -0.529298
O      13.35974      3.81863     10.89052         0.134094      0.185519      0.398093
O      13.31076      0.01744     11.03093        -0.008807      0.031574      0.204281
O       1.88094      7.50318      2.60637         0.122894     -0.024981     -0.097370
O       1.66625      7.53853     15.22917         0.912262     -1.076070     -0.080199
O      13.51221      7.51845      2.68634        -0.888589     -0.716538     -0.564022
O      13.32185      7.51630     15.27508        -0.157825      0.645569      0.669221
O       1.93492      7.62439      6.88005         0.066291     -0.212421     -0.802536
O      13.42798      7.59026      6.82082        -0.408754      0.350573     -0.119950
O       1.82376      7.70351     11.22743         0.411309     -0.764067     -0.104694
O      13.20806      7.68984     11.10083         0.957272     -0.942140      0.304456
O       2.03960     11.30083      2.38743        -0.360706     -0.267008      0.459639
O       1.88747     11.35339     15.31453        -0.194780      0.331063      0.069307
O      13.24656     11.34926      2.78347         0.187404      0.162372     -0.452088
O      13.15382     11.32792     15.50106         0.321793      0.080694     -0.339768
O       2.01342     11.39967      6.90184        -0.101223     -0.035199     -0.342696
O      13.20008     11.40866      6.68815         0.773442     -0.837053      0.162673
O       1.96396     11.42535     11.16724        -0.318457      0.802273     -0.457627
O      13.27794     11.42639     11.05920        -0.014350      0.865087     -0.105822
O       5.64618      3.77780      2.45181         0.373262     -1.614226      0.293381
O       5.73967      3.66413     15.27259        -0.568874      0.759677      0.199927
O       5.75779     15.11714      2.61345        -0.042365     -0.753374     -0.086258
O       5.66589     15.07098     15.34155        -0.035342      0.236219     -0.090574
O       5.68818      3.76468      6.99678        -0.275839      0.583776     -0.056091
O       5.80129     15.11465      6.79283        -0.513733      1.434136      0.137419
O       5.56208      3.85843     11.15015         0.503492     -1.035331     -0.239836
O       5.80358     15.16472     11.12903        -0.325540      1.185791      0.062759
O       5.74809      7.43198      2.59204        -0.699119      0.981456     -0.564560
O       5.68019      7.48879     15.09583        -0.202060      0.506305      0.240829
O       5.73560      7.50591      7.02849        -0.256659      0.895057     -0.485358
O       5.72506      7.65524     11.24868        -0.371539     -0.003842     -0.352333
O       5.78609     11.23890      2.43948        -0.318839     -0.094057      0.452136
O       5.64160     11.27511     15.18933         0.126853      0.470383      0.910406
O       5.75109     11.41971      6.92232        -0.042888     -1.473294      0.204636
O       5.52869     11.47141     10.99848         0.422999     -1.947680      0.027450
O       9.50267      3.77249      2.54851         0.095318     -1.268772      0.853096
O       9.55655      3.78329     15.10374        -0.027537     -0.850707      0.432278
O       9.51649     15.12534      2.57349        -0.157709     -0.019501     -0.044361
O       9.43943      0.00972     15.37105         0.225887     -0.446335      0.025135
O       9.72366      3.78225      6.63549        -0.133156      0.339653      0.746099
O       9.57328      0.03965      6.96294        -0.181895     -0.492207     -0.207506
O       9.54144      3.72336     11.23367        -0.024773      0.647112     -0.501543
O       9.35901     15.17936     10.85472         0.272521      0.371294      0.736450
O       9.42484      7.48726      2.56181         0.349581     -0.093241      0.160966
O       9.50636      7.56517     15.32072        -0.098764      0.772464      0.371788
O       9.47519      7.60817      7.03333         0.130372     -0.576341     -0.022423
O       9.62413      7.62289     10.88541        -0.383039     -0.615806      0.403662
O       9.46501     11.31763      2.55422        -0.250703      0.224530      0.639914
O       9.35938     11.36400     15.22967         0.151425     -0.953865      0.373762
O       9.45610     11.32746      6.81551        -0.383895      0.673251      0.001946
O       9.55360     11.42170     11.15342        -0.055800      0.772666     -0.124476
