  # total energy = -7879.98763623 
CRSYTAL
PRIMVEC
    15.6000000000000000    0.0000000000000000    0.0000000000000000
     0.0000000000000000   15.6000000000000000    0.0000000000000000
     0.0000000000000000    0.0000000000000000    17.640000000000000
PRESSURE
-3.36752 -3.67981 -3.41579 -0.123846 0.623924 0.019845
PRIMCOORD
320 1
Pb       3.84086      3.90038      4.35707        -0.003912     -0.051621      0.041765
Pb       3.92051      3.91795     17.56428         0.291873      0.047503     -0.352303
Pb       3.84210      0.07172      4.31690        -0.074907     -0.547964      0.132909
Pb       3.84093     15.55658     17.59345         0.536701      0.206305      0.314524
Pb      15.55687      3.82719      4.39288         0.084242      0.876447      0.273136
Pb      15.54280      3.93132     17.53454        -0.051997      0.246652      0.139223
Pb       0.02135      0.08620      4.40470         0.170658     -0.973571     -0.211933
Pb      15.50344     15.58823     17.50692         0.346745      0.033197      0.466695
Pb       3.89578      3.87194      8.77198        -0.043351     -0.353926      0.094112
Pb       3.96449     15.51913      8.71056        -0.353855      0.940543      0.732058
Pb      15.57149      3.92941      8.78684         0.159104     -0.520155      0.485781
Pb       0.02637     15.45024      8.66139        -0.326948      0.254108      0.859652
Pb       3.90620      3.74169     13.27861         0.158336      0.085274     -0.453095
Pb       3.81882     15.53375     13.16178         0.177754      0.155954      0.412395
Pb      15.53653      3.86970     13.02071         0.030815     -0.486665      1.123955
Pb      15.54166     15.57576     13.11226         0.260483      0.000125      0.671909
Pb       3.88632      7.76066      4.52621         0.164565      0.507981     -0.566221
Pb       3.88443      7.70192     17.62982         0.051357      0.165230      0.221418
Pb       0.01427      7.91549      4.26516        -0.266526     -0.513641      0.480683
Pb       0.04113      7.72938     17.54492        -0.343057     -0.010540      0.375828
Pb       3.94654      7.73781      8.68544         0.105099      0.348999      0.527383
Pb      15.53021      7.68540      8.79014         0.380669      0.561815      0.522350
Pb       3.81831      7.63722     13.15574         0.362513      0.600026      0.177513
Pb       0.11534      7.72779     13.19851        -0.298367      0.290845     -0.130528
Pb       3.86533     11.75529      4.36010         0.823268     -0.151361      0.455975
Pb       3.83155     11.71472      0.04718         0.032291     -0.337173     -0.500579
Pb      15.59246     11.77316      4.31178        -0.427229     -0.590932      1.076603
Pb      15.56535     11.74673     17.44629        -0.092617     -0.594450      0.676310
Pb       3.82887     11.57757      8.76973         0.611118      0.181259      0.262204
Pb      15.59388     11.70346      8.69871        -0.676435     -0.209478      0.430748
Pb       3.83226     11.68952     13.15201         0.273672      0.055057      0.018421
Pb      15.49080     11.65019     13.05806         0.043567      0.232068      0.928909
Pb       7.66493      3.90491      4.35115         1.080022     -0.078940      0.292626
Pb       7.73898      3.92018     17.58406         0.446793     -0.011162      0.108368
Pb       7.73305      0.16120      4.35723         0.065677     -0.559655     -0.245551
Pb       7.80889      0.10411     17.45363        -0.031568     -0.495279      0.713327
Pb       7.63553      3.77782      8.89241         0.192079      0.391127     -0.460130
Pb       7.78621     15.53959      8.90117         0.124623      0.049064     -0.089738
Pb       7.81790      3.90629     13.24224        -0.163324     -0.319987     -0.116748
Pb       7.79218     15.59849     13.13968         0.373281      0.142775      0.334800
Pb       7.83464      7.94692      4.40279        -0.088176     -0.097436      0.265000
Pb       7.69529      7.83343      0.07033         0.267523      0.453313      0.152581
Pb       7.72959      7.77683      8.71240         0.595952     -0.073688     -0.074907
Pb       7.60526      7.83182     13.18781         0.345669      0.130999      0.058383
Pb       7.91461     11.79654      4.36264        -0.437074     -0.066759      0.091349
Pb       7.76600     11.60399     17.56769         0.033621     -0.090962      0.228528
Pb       7.78828     11.69496      8.68718        -0.083836     -0.035743      0.225953
Pb       7.84481     11.62435     13.17915        -0.481383      0.207505      0.326794
Pb      11.68196      3.91711      4.37863        -0.289165      0.000473     -0.063526
Pb      11.73912      3.83427     17.59069        -0.352712      0.043616      0.475486
Pb      11.68850      0.18856      4.42465         0.128969     -0.479393     -0.390354
Pb      11.63390     15.55439     17.52907        -0.086709      0.391224      0.410811
Pb      11.66020      3.80724      8.74203         0.110282      0.020455      0.377303
Pb      11.80251      0.03409      8.83384        -0.409639      0.063745     -0.102754
Pb      11.58153      3.81085     13.14521         1.218260     -0.159645      0.593232
Pb      11.65337     15.48018     13.06018        -0.248227      1.044578      1.064242
Pb      11.60315      7.82270      4.38727         0.419795     -0.322190      0.376254
Pb      11.46121      7.79438     17.59943         0.799757      0.109522      0.774067
Pb      11.61907      7.78531      8.68408         0.178188     -0.546496      0.697903
Pb      11.56945      7.70625     13.14151         0.456102      0.146284      0.097715
Pb      11.68605     11.78289      4.23154         0.291500      0.108560      1.092785
Pb      11.80647     11.64081     17.46490        -0.318466      0.033369      0.837742
Pb      11.74625     11.52279      8.71378         0.640868      0.483017      0.639919
Pb      11.63779     11.58852     13.07433         0.383551     -0.165878      0.782695
Ti       1.89867      1.96389      2.28793         1.012155     -0.686405      0.796800
Ti       1.96609      1.95008     15.61801         0.026520     -0.746922     -1.831714
Ti       1.91886     13.53961      2.38931         0.001835      2.050715     -0.115071
Ti       2.04114     13.66188     15.64296        -0.393581     -0.418782     -0.615317
Ti      13.70461      1.96099      2.38100        -1.039743     -0.444222      0.485898
Ti      13.66518      2.02328     15.62943        -0.147368     -0.319718     -2.100706
Ti      13.60167     13.70546      2.43895         0.460297     -0.342799      0.407620
Ti      13.64168     13.71751     15.62447        -0.378492     -0.342714     -1.782596
Ti       1.82752      1.92552      6.78654         1.022083      0.163945      1.308554
Ti       1.90039     13.58022      6.93439         0.386557      0.516905     -1.821618
Ti      13.61966      1.93286      6.76301        -0.278055      0.478015      1.306471
Ti      13.46537     13.65781      6.74665         1.027539     -0.935796     -0.386700
Ti       1.98169      1.86205     11.24467        -0.609493      0.250206     -0.733352
Ti       1.96658     13.60477     11.20546        -1.448456      0.123682     -1.852011
Ti      13.66558      1.90527     11.13283        -0.382274      1.442246     -0.242715
Ti      13.52152     13.64812     11.23834         1.827369     -0.859390     -1.876673
Ti       2.01094      5.85818      2.50854        -0.827481      0.414763     -0.505259
Ti       1.91048      5.84275     15.56020         0.128727     -0.397118      0.802161
Ti      13.69835      5.83216      2.40885        -0.198009     -0.061265     -1.274429
Ti      13.53002      5.90993     15.69056         0.888331     -0.552188     -0.959419
Ti       2.00976      5.82663      6.82278        -0.390273     -0.766168     -0.669715
Ti      13.68354      5.80429      6.90560        -0.425345     -0.432421     -1.359640
Ti       2.03698      5.77687     11.27028        -0.130791     -0.023053     -1.626440
Ti      13.69548      5.86455     11.24474        -0.288264     -1.521964     -0.951168
Ti       1.98305      9.75783      2.41699         0.577223     -0.625511      0.305906
Ti       1.93713      9.67160     15.60795        -0.196378      0.758968     -0.492988
Ti      13.64742      9.72845      2.40048         0.019441      0.516896     -0.008160
Ti      13.64273      9.65662     15.58527        -0.099844      0.359816      0.113873
Ti       1.96578      9.70820      6.85001         0.465365     -0.016115     -0.492137
Ti      13.71140      9.61609      6.72882        -0.120421      1.163496     -0.011984
Ti       1.94274      9.75512     11.22776         0.419544     -0.742453     -1.965750
Ti      13.67577      9.63522     11.14642        -0.295836      0.476631     -1.006677
Ti       5.78713      1.94289      2.34049         0.166322     -0.608162     -0.405595
Ti       5.87927      1.92188     15.52334        -0.566889      0.575552     -0.798286
Ti       5.82630     13.67729      2.32664         0.539788     -0.660639     -1.716049
Ti       5.91877     13.63104     15.63294        -0.320421     -0.115605      1.220261
Ti       5.86445      1.83926      6.76567        -0.576943      0.663338     -0.213780
Ti       5.79732     13.67698      6.88065         0.458682     -1.254749     -1.060565
Ti       5.83496      1.97080     11.29386         0.105677      0.237236     -0.817713
Ti       5.87838     13.70063     11.19741        -0.708136     -0.159995     -0.379266
Ti       5.88542      5.83338      2.51145         0.227189      0.699750      0.013283
Ti       5.95778      5.89900     15.66902        -0.916965     -0.533473      0.121066
Ti       5.88451      5.78009      6.80954         0.510548      0.054497     -0.674558
Ti       5.88570      5.85382     11.18114        -0.779621     -1.323205     -1.064128
Ti       5.87687      9.73814      2.42934         0.128360      0.204375      0.362320
Ti       5.74681      9.71888     15.57168         0.977585      0.394238     -0.493726
Ti       5.93525      9.77886      6.78026        -0.684058      0.359269     -0.879657
Ti       5.83821      9.78252     11.19497        -0.117462     -0.029794      0.445735
Ti       9.74628      1.92535      2.35521        -0.101161      1.715081     -1.303857
Ti       9.74095      1.96851     15.67246         0.538091     -0.466573     -1.152625
Ti       9.74551     13.69939      2.34002         0.175733     -0.026286     -0.377083
Ti       9.74351     13.52119     15.64759        -0.328505      1.373781      0.242719
Ti       9.60275      1.83128      6.85748         1.476059      1.226811     -0.239792
Ti       9.70302     13.63637      6.89203         0.718071     -0.292361     -1.337549
Ti       9.71656      2.02932     11.21902         0.991873     -1.978393     -0.385338
Ti       9.71567     13.60452     11.18189        -0.564284      0.484805     -0.769927
Ti       9.77612      5.83069      2.46339        -0.302619     -0.151840     -0.870979
Ti       9.79284      5.82185     15.60479        -0.610276     -0.912847     -0.669208
Ti       9.70556      5.72641      6.81387         0.342550      0.253983      0.807925
Ti       9.75733      5.81974     11.21238        -0.076062     -0.056223     -0.489773
Ti       9.79703      9.77089      2.46140        -1.549873     -0.032906     -2.274211
Ti       9.75340      9.63817     15.63108        -0.190875      1.212607     -0.792604
Ti       9.81928      9.74750      6.86390        -1.144315     -0.858904     -1.091064
Ti       9.76996      9.70799     11.18510        -0.080806     -0.006708     -0.983856
O       1.92936      1.79002      0.57350        -0.022589      0.682197     -0.370944
O       2.02163      1.66109     13.77965        -0.046671      1.032503      1.832139
O       1.91783     13.68427      0.61958         0.009634     -0.744145      0.267009
O       2.05357     13.66570     13.88244         0.096554     -0.091448      1.009626
O      13.63033      1.88078      0.64892         0.407927      0.292319     -0.248616
O      13.72855      2.08880     13.82759        -0.229297     -0.454633      1.496481
O      13.72774     13.59692      0.70217        -0.062759      0.210817     -0.658122
O      13.68184     13.76783     13.83117        -0.436709     -0.249825      0.725341
O       2.00235      1.84792      5.07109        -0.111567      0.190018     -0.695252
O       1.89540     13.66969      5.12140         0.553654     -0.389716      1.100388
O      13.66839      1.97709      5.02446        -0.106566     -0.169575     -0.490061
O      13.46596     13.73630      4.96992         0.101315     -0.209775      1.077222
O       1.85099      1.98610      9.48863         0.451106     -0.416048      0.555343
O       1.78634     13.48864      9.35389         0.437538      0.532581      1.253556
O      13.60614      2.01365      9.35515         0.204678     -0.611822      0.727622
O      13.57572     13.59646      9.41791         0.187127      0.242311      2.045608
O       1.96539      5.92687      0.75732         0.098506      0.006218     -0.320899
O       1.97890      5.98001     13.83506        -0.016537     -0.205663     -0.420918
O      13.62081      5.78761      0.58808         0.380835      0.003086      1.116702
O      13.52744      5.79959     13.93498         0.043827      0.498613     -0.091561
O       1.99558      5.71721      5.01327         0.123756      0.501104      1.156237
O      13.78688      5.73019      5.13310        -0.258334      0.046802      0.826021
O       2.10056      5.73384      9.47916        -0.042897     -0.021707      0.746769
O      13.74551      5.77670      9.48442         0.231082      0.137889     -0.062425
O       2.13100      9.79926      0.69806        -0.394173     -0.145005     -0.613883
O       1.81164      9.66413     13.83552         0.454399     -0.218696      0.249525
O      13.62093      9.84827      0.66321         0.012906     -0.301514      0.442916
O      13.67446      9.59331     13.84890        -0.244166     -0.177497     -0.352685
O       2.02958      9.73171      5.10681        -0.310231     -0.108599     -0.089212
O      13.72448      9.64265      4.96791        -0.121359     -0.138403      0.540951
O       2.18833      9.77023      9.40737        -0.777163      0.123598      1.447478
O      13.63653      9.69078      9.37213         0.101089     -0.006766      0.848547
O       5.61818      1.84923      0.58239         0.616105      0.725702      0.614426
O       5.87329      1.99087     13.70474         0.023513     -0.009893      0.773036
O       5.89724     13.68568      0.48346        -0.324535     -0.065844      1.755046
O       5.87530     13.63984     13.93393        -0.095920      0.009901     -1.153380
O       5.88023      1.64816      5.00036         0.022517      0.749719     -0.203765
O       5.73665     13.51906      5.14496         0.059176      0.691817     -0.371468
O       5.86711      2.08334      9.49579         0.221790     -0.310694      0.679336
O       5.95749     13.69453      9.45089        -0.213081     -0.159583     -0.387448
O       5.80005      5.78732      0.76822        -0.015045      0.058311     -0.736523
O       5.91904      5.96494     13.94986         0.290755     -0.014466     -0.643770
O       5.94513      5.88036      5.03809        -0.365178     -0.315260      0.038819
O       5.77979      5.69168      9.38956         0.145986      0.328838      0.378800
O       5.94806      9.60444      0.67732        -0.155766      0.478064      0.037257
O       5.98274      9.65669     13.78631        -0.636026     -0.102530      0.627494
O       6.02563      9.82567      5.02730        -0.172582     -0.366658     -0.313612
O       5.86299      9.70717      9.44377         0.094248      0.253496      0.670075
O       9.74692      1.93921      0.55310        -0.003144      0.117347      0.749025
O       9.71907      1.84482     13.88221         0.141877      0.800491      0.835630
O       9.75190     13.72438      0.58336        -0.161815      0.020067      0.461478
O       9.64156     13.62236     13.90251         0.340692     -0.175735     -0.325429
O       9.73265      2.10718      5.10494        -0.244352     -1.110742      0.343202
O       9.81248     13.54075      5.10641        -0.039328      0.427006      0.829228
O       9.80341      1.92782      9.45883        -0.495636      0.011408     -0.095840
O       9.81005     13.72821      9.42784        -0.435927     -0.358631      0.904812
O       9.78551      5.97898      0.70458         0.075467     -0.101411      0.101348
O       9.72993      5.56404     13.81253         0.198919      1.024476      0.836624
O       9.94753      5.84815      5.10070        -0.549256     -0.340012     -0.380743
O       9.75660      5.79844      9.48367         0.003468     -0.011875      0.421678
O       9.60895      9.68077      0.59437         0.551091     -0.128571      1.289317
O       9.96631      9.76071     13.85883        -0.566703     -0.026518      0.120519
O       9.59569      9.67664      5.10107         0.635315      0.424422      0.078704
O       9.79162      9.67140      9.42222        -0.283949      0.058678      0.300246
O       3.89881      1.87230      2.76898        -0.414417      0.480649      0.166121
O       3.95261      2.12378     15.90391        -1.215298     -0.231049      0.168302
O       3.92206     13.59560      2.73544        -0.345931     -0.033555     -0.090134
O       3.95191     13.68476     16.08330        -0.865953     -0.547997     -0.175973
O       0.08121      1.93127      2.85231        -0.188072     -0.035065     -0.422971
O       0.02227      1.90726     16.01695        -0.189440      0.092969      0.187341
O      15.53431     13.59440      3.03178         0.992267      0.585848     -1.258785
O      15.51896     13.53894     16.01320         0.641687      0.851556     -0.186280
O       4.03592      1.79679      7.19493        -1.272516      0.472171      0.029474
O       3.95227     13.67258      7.42455        -0.884899     -0.277387     -0.701018
O      15.56360      2.11676      7.14597         0.220433     -1.236372     -0.302194
O       0.02661     13.52734      7.19556        -0.772832      0.245204     -0.009437
O       3.91962      1.84563     11.67817        -0.020923      0.459707     -0.148296
O       3.80223     13.60081     11.52370         1.373424     -0.353712      0.336661
O      15.57572      1.81651     11.63148         0.561684      0.163904     -0.304085
O       0.03904     13.64978     11.73912        -1.087390      0.104865     -0.625359
O       3.93855      5.86123      2.91837         0.187543      0.097018      0.208155
O       3.99803      5.88839     15.98981        -0.739589     -0.489105      0.322637
O      15.57268      5.80476      2.84295         0.813874      0.178235      0.031727
O      15.56376      5.90651     15.94265         0.384867      0.064808      0.416241
O       3.95736      5.70160      7.18550        -0.591733      0.646828     -0.138970
O       0.10130      5.87143      7.35255        -0.171773     -0.313251     -0.509166
O       3.92098      5.79559     11.76461        -0.129436     -0.044960     -0.144738
O       0.11140      5.88908     11.70357        -0.702910     -0.327771     -0.286299
O       3.89790      9.67429      2.82705         0.856397      0.407350      0.300526
O       3.82505      9.74206     16.02206         0.874178     -0.040746     -0.201214
O       0.00963      9.81316      2.78810         0.080414     -0.420066     -0.171459
O       0.06671      9.73815     16.07187        -0.777938     -0.709792     -0.036684
O       3.98230      9.61310      7.04557        -0.330450      0.507928      0.785442
O      15.59895      9.72778      7.19493         0.529182     -0.059758     -0.078347
O       3.85355      9.68503     11.63574         0.737906      0.734046      0.141488
O      15.56717      9.64710     11.57486         0.604899     -0.018250     -0.061848
O       7.73310      1.96253      2.74468         0.205868     -0.070420      0.130866
O       7.77944      2.03501     15.93927         0.078195     -0.239864      0.285752
O       7.91843     13.66900      2.83030        -0.800361      0.140982     -0.210737
O       7.78571     13.75664     16.07225         0.382944     -0.238945     -0.250745
O       7.77830      1.78303      7.21823        -0.025092      0.438249      0.315530
O       7.84860     13.60524      7.17221        -0.690584     -0.401738      0.568466
O       7.89255      1.95583     11.67789        -1.617747      0.143955     -0.175043
O       7.70486     13.69594     11.54024         1.776057     -0.242098      0.344958
O       7.84718      5.81404      2.70840        -0.201588     -0.180649      0.789769
O       7.89031      5.84543     16.09948        -0.542836      0.387136     -0.094380
O       7.75418      5.69516      7.19282         1.083372      0.698887      0.253924
O       7.73146      5.75560     11.44292         1.285524      0.097978      0.742781
O       7.86946      9.85873      2.82638        -0.354715     -0.438249      0.204622
O       7.82165      9.61328     15.98138         0.282433      0.432730      0.080763
O       7.82905      9.79508      7.23296         0.104014     -0.216906      0.544331
O       7.81693      9.77088     11.71491        -0.554754     -0.379179     -0.667617
O      11.72867      1.97735      2.84486         0.360118      0.023053     -0.180812
O      11.76830      1.92756     16.02514        -0.520542      0.572474      0.040879
O      11.74761     13.68347      2.76541        -1.004437      0.387016      0.093168
O      11.66731     13.69586     16.07455         0.277259     -0.488243     -0.430518
O      11.67421      1.93357      7.26158         0.300900     -0.726997     -0.501434
O      11.71397     13.61839      7.29118        -0.619503      0.418004     -0.135633
O      11.72039      2.03815     11.56452         0.139552     -0.585903      0.102159
O      11.66449     13.49639     11.59045        -0.137143      0.741177      0.027448
O      11.69261      5.86067      2.85461         0.855873     -0.263076      0.141827
O      11.67744      5.82109     16.14191        -0.754401      0.016527     -0.343320
O      11.77032      5.85177      7.31870        -0.331186     -0.274506     -0.439298
O      11.72472      5.71997     11.63657        -0.586449      0.441100     -0.056572
O      11.61360      9.73654      2.80408         1.681427     -0.239037      0.063845
O      11.70178      9.72648     16.08731        -0.432167     -0.070293     -0.179861
O      11.69114      9.51503      7.12578         0.751444      0.868734     -0.058880
O      11.72468      9.87205     11.50165        -0.560951     -0.973586      0.342142
O       2.09195      3.95829      2.70144        -0.382595     -1.611036      0.263114
O       1.77732      3.89028     16.03081         1.046349      0.355708     -0.334698
O       1.97277     15.51400      2.74787        -0.340135      0.420057      0.272084
O       1.95309      0.02101     16.05950         0.084403     -0.615787     -0.126994
O      13.84631      3.84295      2.83915        -1.037903      0.123320     -0.344592
O      13.62721      3.91091     16.07229         0.347718     -0.109316      0.227722
O      13.67457      0.02389      2.91727         0.192019      0.410420     -0.359664
O      13.59038     15.59949     16.06797         0.551809     -0.303700     -0.262289
O       1.93742      3.85247      7.23555         0.498128      0.243649     -0.313338
O       1.87914     15.58057      7.27037         0.197500      0.215350     -0.110824
O      13.64036      3.83652      7.27833         0.043104      0.638631     -0.320730
O      13.68416     15.56107      7.19759        -0.008019      0.316780     -0.211549
O       2.00015      3.78763     11.66147        -0.014847      0.374345      0.137773
O       2.02838     15.48200     11.66043        -0.531367      0.711065     -0.482550
O      13.80073      3.85760     11.57841        -0.339124      0.227996     -0.173495
O      13.56536      0.03483     11.56793        -0.123914     -1.565683     -0.204777
O       2.00168      7.82565      2.88813        -0.263664     -0.115775      0.075499
O       2.00573      7.68633     16.11475        -0.363084      0.806679     -0.291086
O      13.70019      7.71299      2.77201        -0.133258      1.049838     -0.015172
O      13.53457      7.78733     16.10331         0.507429      0.102059     -0.026731
O       2.06569      7.80170      7.31701        -0.529866     -0.984350     -0.673134
O      13.73480      7.77387      7.23860        -0.030066     -0.518691     -0.060004
O       2.00028      7.74761     11.49414        -0.104052      0.531145      0.741409
O      13.62515      7.69616     11.38872        -0.190078      1.183028      1.073756
O       2.02818     11.68124      2.87440        -0.540060      0.197837     -0.356109
O       1.94848     11.64210     16.06941         0.401553      0.817804     -0.141006
O      13.62992     11.66640      2.89562        -0.075002     -0.042809     -0.411740
O      13.54802     11.58054     15.91467         0.557959      1.004642      0.209317
O       2.06459     11.67765      7.31193        -0.324624     -0.558335     -0.619061
O      13.57144     11.65900      7.22246         0.199297     -0.242919     -0.558740
O       1.82378     11.70922     11.68739         0.758161     -1.108139     -0.220067
O      13.66856     11.59711     11.63614        -0.020007      1.000679     -0.258134
O       5.92259      3.86745      2.91635        -1.203367     -0.159403     -0.592555
O       5.91176      3.90319     16.01645        -0.056075      0.726473      0.206528
O       5.85618     15.53529      2.75102         0.111640      0.500705      0.191026
O       5.77227      0.10402     15.96886         0.346093     -0.629754     -0.126223
O       5.96499      3.83079      7.12004        -0.429546     -0.437109      0.043666
O       5.90688     15.56477      7.21561         0.183984     -0.336305      0.609965
O       5.78541      3.93464     11.63651         0.137462     -0.626352      0.475971
O       5.88014      0.03924     11.52456        -0.110846     -0.402052      0.284206
O       5.97598      7.79587      2.84036        -0.313985      0.046048      0.106326
O       5.85280      7.91764     16.15391        -0.021851     -1.672385     -0.280612
O       5.95344      7.80333      7.19550        -0.214221     -0.666864      0.003796
O       5.84735      7.71079     11.61819         0.019163      1.303985     -0.118378
O       5.91389     11.72561      2.68190        -0.294964     -0.019638      0.198786
O       5.95648     11.60912     15.93514        -0.449820      0.438074      0.313312
O       5.80830     11.70276      7.11419         0.346079     -0.361546      1.091748
O       5.84046     11.76840     11.74103        -0.163807     -1.165773     -0.601320
O       9.81509      3.86470      2.81216        -0.292140      0.597488      0.107950
O       9.72565      3.94037     16.17353         0.318007     -0.150100     -0.382460
O       9.72577      0.16760      2.75466         0.399759     -2.259707      0.571697
O       9.79133      0.10761     16.03523        -0.403062     -0.727747      0.170536
O       9.74039      3.81670      7.27437        -0.169844      0.274429     -0.121102
O       9.65176     15.50166      7.38071         0.814276      0.718990     -0.704893
O       9.76403      3.80279     11.71463        -0.595462      2.037298     -0.421885
O       9.74106      0.02005     11.72802         0.156479     -1.178467     -0.689911
O       9.77751      7.84898      2.96670        -0.313360     -0.358429     -0.515255
O       9.82397      7.78773     15.83767         0.109491     -1.055298      0.280765
O       9.75222      7.73811      7.21612        -0.711625     -0.362672      0.247428
O       9.73070      7.81338     11.57942         0.272057     -0.852748      0.266824
O       9.87610     11.75584      2.80134        -0.621650     -0.090500     -0.386186
O       9.69218     11.71938     16.06525         0.106797     -0.693066     -0.245115
O       9.86137     11.61503      7.34010        -0.480660      0.505963     -0.421511
O       9.67163     11.68332     11.56633         0.073490      0.338524      0.072143
