  # total energy = -7877.10702295 
CRSYTAL
PRIMVEC
    15.2000000000000000    0.0000000000000000    0.0000000000000000
     0.0000000000000000   15.2000000000000000    0.0000000000000000
     0.0000000000000000    0.0000000000000000    17.000000000000000
PRESSURE
8.28323 7.93572 2.31969 -0.085361 -0.145153 0.047023
PRIMCOORD
320 1
Pb       3.92939      3.69633      4.17999        -0.109091      0.169934      0.166979
Pb       3.56742      3.64307     16.92684         0.991604      0.645969     -0.019282
Pb       4.01693     14.92030      4.11152        -0.764304      1.170408      0.414698
Pb       3.66498     15.12767     16.94166         0.338637      0.696691      0.609691
Pb      15.17467      3.57977      4.25282         0.212350      0.191084     -0.235062
Pb      15.05469      3.90771     16.96415         0.176351     -0.760069     -0.214141
Pb      15.15397     14.89023      4.11655         0.182896      0.888483      0.358773
Pb      15.08835      0.02629      0.07194         0.181127      0.270289     -0.265360
Pb       3.47608      3.87470      8.53062         0.732658      0.170204     -0.047406
Pb       3.78745      0.14399      8.21916         0.145384     -0.524933      1.486155
Pb      15.08179      3.82679      8.34311         0.419451      0.112736      1.025165
Pb       0.16223      0.12546      8.27092        -0.472941     -0.548129      1.208061
Pb       3.74418      3.76390     12.79832        -0.301441      0.398240     -0.221658
Pb       3.79923     15.19703     12.70458        -0.450986     -0.120787     -0.706971
Pb      15.10651      3.84116     12.80327         0.079373      0.064409     -0.462243
Pb      15.04676     15.13069     12.62519         1.097780      0.071514     -0.019841
Pb       3.90476      7.42724      4.13834        -0.204504      0.162588      0.510872
Pb       3.64582      7.46813     16.95405         0.667280     -0.073728     -0.746755
Pb       0.00688      7.35312      4.25145        -0.469158      1.596874      0.276384
Pb      15.10549      7.53070      0.20642         0.206822      0.614073     -0.840971
Pb       3.76886      7.48715      8.58958        -0.263545      0.287176     -0.350444
Pb       0.07788      7.69272      8.47629        -0.316466     -0.236263      0.359788
Pb       3.77322      7.76684     12.90307         0.477514      0.009329     -0.440980
Pb      15.17667      7.78399     12.92048         0.062287     -0.351502     -1.033546
Pb       4.10235     11.31280      4.13228        -0.804492     -0.473872      0.487769
Pb       3.63417     11.38865     16.66641         0.397309     -0.189688      1.352147
Pb       0.08807     11.24474      4.24452        -0.414105     -0.329072     -0.130938
Pb      15.03181     11.35916      0.02281         0.249565      0.035455      0.199504
Pb       3.81855     11.40184      8.38608        -0.106407     -0.430807      0.200413
Pb       0.13662     11.38371      8.40866        -0.113326     -0.196917     -0.373347
Pb       3.91297     11.58063     12.62899        -0.669946     -0.907218      0.720405
Pb       0.02524     11.61230     12.67218         0.332017     -0.239711      0.208036
Pb       7.63196      3.87661      4.34218        -0.547774     -0.165338      0.153809
Pb       7.58410      3.78360     16.92918        -0.374541     -0.170916      0.096394
Pb       7.58269      0.01207      4.24104        -0.048586     -0.145191      0.024984
Pb       7.49388     15.19368     16.91525         0.414686      0.641108      0.158325
Pb       7.31156      3.77553      8.68346         0.633784     -0.242057     -0.388260
Pb       7.51758      0.05927      8.61810         0.369140     -0.119709      0.067117
Pb       7.61981      3.68959     12.68355         0.466410      0.862786      0.446297
Pb       7.54811     15.09428     12.73352        -0.025104      0.145104     -0.384912
Pb       7.38738      7.52758      4.17969         0.708642      0.425217      0.269002
Pb       7.76366      7.42674      0.01574        -0.768193     -0.154039     -0.158931
Pb       7.55249      7.49926      8.62718         0.089172      0.505044     -0.248148
Pb       7.71509      7.62171     12.77519        -0.551052     -0.240371      0.336937
Pb       7.66919     11.49836      4.21554        -0.124767     -0.544868      0.439345
Pb       7.43284     11.29533     16.98838         0.868046      0.662846     -0.476795
Pb       7.65950     11.25635      8.50760         0.357676      0.274027      0.164907
Pb       7.72704     11.49711     12.80506        -0.166209     -0.835146     -0.053345
Pb      11.32315      3.79683      4.38501        -0.177773     -0.427923     -0.143697
Pb      11.34646      3.92087     16.92828        -0.200047     -0.394167      0.033615
Pb      11.27952     15.17983      4.29162         0.037605      0.021888     -0.299606
Pb      11.27769      0.10500      0.05337        -0.439922     -0.066144     -0.176174
Pb      11.33069      3.78570      8.48494         0.350954      0.210707      0.581583
Pb      11.49238     15.13974      8.64875        -0.350689     -0.149725     -0.481944
Pb      11.46754      3.79102     12.60593        -0.395465      0.783320      0.524377
Pb      11.34428      0.01885     12.69133         0.132629     -0.178604      0.346504
Pb      11.30379      7.37417      4.33864         0.246743      1.073767     -0.080149
Pb      11.43964      7.64111      0.11602        -0.381927     -0.571663     -0.515153
Pb      11.51091      7.66991      8.46842        -0.361177     -0.197090      0.426447
Pb      11.53489      7.75831     12.74986        -0.564959     -0.507549     -0.704469
Pb      11.40831     11.51005      4.28740         0.283823     -0.563491      0.024209
Pb      11.34253     11.20137      0.11691         0.162172      1.341733     -0.578595
Pb      11.43673     11.30781      8.40424        -0.303903      0.167996      0.403172
Pb      11.50143     11.37317     12.85164        -0.561642      0.254308     -0.518184
Ti       1.90438      1.84991      2.27188        -0.164216     -0.858990      0.457460
Ti       1.84537      1.88083     14.94014        -0.975239      0.200405     -0.752132
Ti       1.86403     13.19207      2.24038        -0.373093     -0.056441      0.189957
Ti       1.78718     13.38320     15.00804        -0.051401     -0.811607     -1.847442
Ti      13.22619      1.87859      2.23943         0.108546      0.174281     -0.226714
Ti      13.24534      1.89586     15.01182         0.073147      0.719173      0.925313
Ti      13.14071     13.32126      2.24833         1.172223     -1.543481     -0.789229
Ti      13.24307     13.35957     15.05361        -1.424458     -0.839663      0.073162
Ti       1.90737      1.90302      6.34078         0.111871      0.958175     -0.945902
Ti       1.94340     13.25336      6.36042         0.336092     -0.772462     -0.058947
Ti      13.30487      1.84797      6.39509        -0.386675     -0.257788     -0.100536
Ti      13.38040     13.32810      6.59758        -1.175594     -1.089475     -0.707976
Ti       1.86076      1.97044     10.77098         0.248699     -0.350078      0.571350
Ti       1.94398     13.32509     10.55535        -0.209867      0.388608      1.338211
Ti      13.30429      1.84434     10.67270        -0.391012      1.465354     -0.949674
Ti      13.26814     13.30049     10.64122         0.497978     -0.936603     -1.127972
Ti       1.87970      5.62558      2.22073         0.672071     -0.186639      0.516066
Ti       1.79237      5.71534     14.91494         1.293399      0.636327      0.659389
Ti      13.31250      5.57103      2.34053        -0.837765      1.731873     -0.118612
Ti      13.26096      5.79016     15.00649        -0.361431     -0.984668     -0.685150
Ti       1.81112      5.74566      6.44444         1.961694     -0.494378     -0.013312
Ti      13.34677      5.67575      6.55309        -1.074755      1.072042      0.319263
Ti       1.83774      5.79902     10.89157         0.181359     -0.985506     -0.280304
Ti      13.29664      5.71091     10.69653         0.344785      0.890814     -1.197665
Ti       1.96824      9.41354      2.20075        -0.621791      0.603102      0.478513
Ti       1.83599      9.58574     14.90886        -0.556168     -0.865320      0.513536
Ti      13.24813      9.42776      2.22056         0.035208      0.222020      1.276584
Ti      13.30484      9.51614     14.95780         0.368503      0.150433      1.151633
Ti       2.02580      9.40825      6.34988        -0.696609      0.209735      0.873058
Ti      13.37302      9.48844      6.47376         0.188974     -0.352603     -1.145991
Ti       1.82976      9.55577     10.74286         1.426804      0.132777      0.224329
Ti      13.35353      9.60930     10.64890        -1.378192     -1.627990      1.760572
Ti       5.73377      1.87557      2.17233        -0.917964     -0.011326     -0.791024
Ti       5.61786      1.98546     14.84500         0.823023     -0.362227      1.144596
Ti       5.61938     13.20353      2.01102         1.043565      1.356627     -0.448771
Ti       5.61853     13.40312     14.98682         1.046667     -0.853395     -0.238395
Ti       5.73769      1.88354      6.55378         0.374226      0.983160     -1.017006
Ti       5.76973     13.26083      6.55597        -0.674546     -0.108456     -0.537059
Ti       5.71729      1.89969     10.88515        -1.065696     -1.443125     -1.223651
Ti       5.73203     13.21470     10.61479        -0.270141      1.447755      0.873857
Ti       5.69734      5.63087      2.10671        -0.788934     -0.548976     -2.091245
Ti       5.66909      5.67275     14.89101        -0.335055      0.317767      1.415933
Ti       5.69001      5.65037      6.61310        -1.401876      0.423949     -1.019344
Ti       5.61138      5.68363     10.78225         0.105332      0.556276      0.141969
Ti       5.73408      9.48747      2.03677         0.515098     -1.184458     -0.126522
Ti       5.72699      9.48306     15.07000        -0.474480     -0.714644     -1.470814
Ti       5.75239      9.42518      6.59566         0.025962      0.350039     -1.489089
Ti       5.73318      9.49699     10.79365        -0.454834     -1.044404     -0.329154
Ti       9.41291      1.93670      2.31771         0.328796     -0.852028     -1.947729
Ti       9.47586      1.91948     14.94716        -0.847500     -0.127825      0.341888
Ti       9.39052     13.27664      2.18325        -0.340043      1.155173     -0.270973
Ti       9.40844     13.26878     14.99755         1.598240     -0.370129      0.090441
Ti       9.56320      1.86661      6.63658        -1.813596     -0.165822     -0.365127
Ti       9.53274     13.32585      6.63786        -0.158958     -0.626422     -0.004837
Ti       9.52521      1.90991     10.73777         0.154837      0.316854     -0.266953
Ti       9.51996     13.30835     10.73076         0.064337     -1.142848     -1.440272
Ti       9.49947      5.67926      2.34780        -0.955035     -0.212333     -1.238854
Ti       9.48225      5.65015     14.87631        -0.077323      0.387569     -0.421624
Ti       9.45560      5.70458      6.71926        -0.246140      0.276937     -1.351242
Ti       9.45542      5.77532     10.69274         0.641704      0.046958      0.142850
Ti       9.48815      9.52862      2.24835         0.020474     -0.852440      0.549169
Ti       9.51928      9.45110     15.09448        -0.320812      0.144002     -1.391320
Ti       9.48830      9.46147      6.45118         0.010803     -0.137743     -0.590266
Ti       9.50397      9.45568     10.76737         0.932524      1.174188     -0.778463
O       1.97983      1.72550      0.50242        -0.437373      0.394609     -0.889454
O       1.85855      1.89888     13.16734        -0.371975     -0.643446     -0.014441
O       1.92599     13.19501      0.46405        -0.271301      0.301531     -0.593024
O       1.80381     13.34513     13.16018        -0.163710      0.216262      1.424202
O      13.19544      1.98216      0.44951        -0.031823     -0.180428     -0.191495
O      13.22080      1.83591     13.25114        -0.005439     -0.104847     -0.475183
O      13.25427     13.16155      0.47107        -0.058199      0.678787     -0.110007
O      13.13675     13.37179     13.24863         0.658688      0.105573     -0.228167
O       1.83620      1.94839      4.55900         0.010639     -0.154288      0.395793
O       1.85383     13.18540      4.58505         0.192139      0.337325      0.239332
O      13.24714      1.77853      4.61042         0.048805      0.210713      0.466517
O      13.15191     13.23383      4.79786         0.455450      0.435273     -0.624028
O       1.91585      2.04313      8.96853        -0.339538     -0.329989      0.045247
O       2.00668     13.19544      8.80920        -0.260627      0.387155     -0.791030
O      13.08911      1.96544      8.88740         0.960287     -0.093984      0.469427
O      13.23387     13.23997      8.85561         0.435705     -0.023431     -0.279247
O       1.80806      5.72626      0.45015        -0.041312     -0.245513     -0.156365
O       1.83494      5.81767     13.15428        -0.346997     -0.290794     -0.186154
O      13.21068      5.64540      0.52515         0.334902     -0.006448      0.212296
O      13.32429      5.68401     13.23086         0.227131      0.482379     -0.382795
O       1.84918      5.69013      4.68859         0.079673     -0.067990     -0.839456
O      13.34996      5.80959      4.76926        -0.401492     -0.610400     -0.307092
O       1.86792      5.66540      9.08013         0.061938      0.009628     -0.351398
O      13.42236      5.70744      8.83386        -0.407431     -0.553553      1.190318
O       1.87466      9.54473      0.44441        -0.028388     -0.381835      0.057094
O       1.83636      9.63719     13.13760        -0.427446     -0.454042     -0.368294
O      13.21993      9.47440      0.39592        -0.132215     -0.153208     -0.074568
O      13.22637      9.57278     13.17512         0.321692     -0.554233     -0.151768
O       2.04342      9.43623      4.60043        -0.110465     -0.167577     -0.638381
O      13.43994      9.42829      4.69957        -0.560292      0.143361      0.278492
O       1.93730      9.47387      8.97518        -0.311163      0.515053      0.094679
O      13.33032      9.64454      8.93695         0.190042     -0.260493     -1.913291
O       5.65943      1.95747      0.37139         0.007942     -0.273450      0.660056
O       5.68191      1.94951     13.05386         0.075196     -0.462360     -0.337878
O       5.47731     13.30365      0.21285         0.734414     -0.029076      0.734605
O       5.81070     13.25938     13.19388        -0.100804      0.651723      0.074842
O       5.74916      1.86441      4.74854        -0.150417      0.080526      0.333875
O       5.71940     13.33845      4.69895         0.103330     -0.611899      0.485331
O       5.69158      1.86313      9.05782         0.018369      0.098973     -0.110805
O       5.71007     13.33460      8.89602        -0.416296     -0.235594     -1.634207
O       5.73476      5.64781      0.26402        -0.234176     -0.132976      1.604267
O       5.62692      5.62291     13.13244         0.102359      0.098656     -0.693839
O       5.51575      5.55421      4.78156         0.659051      0.332222      0.239974
O       5.57767      5.77905      8.91555         0.361068     -0.470258      0.652842
O       5.83241      9.48165      0.25355        -0.883357     -0.147299      0.202802
O       5.74061      9.36301     13.26026        -0.345320      0.219893      0.039219
O       5.81584      9.52364      4.72492        -0.305503     -0.042568      0.842011
O       5.81838      9.50688      8.97127        -0.448881     -0.101561      0.789197
O       9.38932      1.90558      0.45814         0.319135      0.078774      0.736033
O       9.50660      2.00068     13.17965         0.170356     -0.384621     -0.555751
O       9.47920     13.42291      0.44986         0.106153     -0.400314     -0.477429
O       9.46705     13.17975     13.14720        -0.204011      0.426927      0.240508
O       9.33570      1.78562      4.79869         0.768868      0.291629      0.431947
O       9.43528     13.27880      4.79506         0.101528      0.094248      0.107768
O       9.55173      1.85991      8.96510         0.140199      0.119354     -0.017423
O       9.55632     13.26073      8.91080        -0.221914     -0.051716      0.867524
O       9.44926      5.72578      0.51231         0.390617     -0.680128      0.902932
O       9.38384      5.68424     13.11719         0.448192      0.007615     -0.365076
O       9.27761      5.63723      4.78740         0.956464      0.022647      0.578478
O       9.41999      5.86737      8.86244         0.141458     -0.516758      0.517174
O       9.61510      9.53548      0.40510        -0.332362     -0.502422      0.431299
O       9.59291      9.45798     13.23606        -0.171962      0.275605      1.372141
O       9.22768      9.48965      4.63449         0.760793     -0.059480      0.856752
O       9.57984      9.43963      8.96211        -0.505876      0.033152      0.451851
O       3.78607      1.78842      2.48034         0.513280     -0.026471      0.588875
O       3.69432      1.91336     15.14568         0.961846      0.127849      0.636396
O       3.79273     13.19120      2.47803         0.271070      0.196487      0.406893
O       3.75794     13.19537     15.21075        -0.717840      0.831930     -0.267534
O      15.09648      1.86223      2.44462         0.968729     -0.043763      0.596897
O      15.14102      1.82958     15.33466        -0.557913     -0.246876      0.364426
O      15.09916     13.11046      2.61764         0.177967      0.604848     -0.196926
O      15.15328     13.48097     15.39843        -0.758750     -0.255626     -0.074711
O       3.77552      1.96658      6.75570         0.037759     -0.186307      0.054434
O       3.80201     13.29195      6.70206        -0.125906      0.313221      0.293331
O      15.18845      1.88893      6.73437         0.197844      0.275923      0.057627
O       0.08279     13.34204      6.79489        -0.202279     -0.198538      0.151347
O       3.74362      1.92055     11.07180         0.495231     -0.011721      0.397242
O       3.83703     13.24903     11.05858        -0.723750     -0.007023     -0.228073
O      15.12576      1.73411     11.03304         0.598811      0.657845      0.148969
O      15.16337     13.35297     10.93443         0.072667      0.101139      0.420675
O       3.83748      5.70734      2.51248        -1.833788     -0.753985      0.104572
O       3.69364      5.55014     15.31504        -0.124831      0.142650      0.038364
O      15.15074      5.60740      2.77844         0.725674     -0.347728     -1.224912
O      15.15978      5.77934     15.48526        -0.080028     -0.038183     -0.215448
O       3.67234      5.83317      6.79933         0.813869     -0.563873      0.665498
O       0.00871      5.76189      6.89683        -0.627991     -0.591051     -0.110302
O       3.77833      5.48540     11.09867         0.123771      0.295519     -0.027974
O      15.19966      5.58066     11.10718        -0.705022      0.608505      0.300655
O       3.94017      9.43893      2.46903        -1.725171      0.243456      0.122107
O       3.65393      9.50988     15.25011         1.344237      0.309167      0.124852
O      15.06841      9.37258      2.47547         2.228879      0.260549      0.082571
O      15.15835      9.31045     15.33501        -0.197333      0.256452      0.019680
O       3.81995      9.46690      6.92104         0.330053     -0.057050     -0.229643
O       0.09198      9.44530      6.80152        -0.410160      0.463560      0.198463
O       3.74322      9.63122     11.12894         0.875858     -0.272220      0.055203
O      15.16413      9.42318     11.03172         0.656716      0.185666      0.524950
O       7.53843      1.91998      2.53039         0.261260     -0.073963      0.523746
O       7.53512      1.91963     15.26519         0.488512     -0.359265     -0.083587
O       7.51687     13.15190      2.42517         0.138392      0.212276      0.074333
O       7.58552     13.25616     15.43453        -1.224715      0.708298     -0.390935
O       7.58873      1.92435      6.95410        -0.121219      0.162677      0.237150
O       7.52187     13.13319      6.89554         1.673302      0.440489     -0.037599
O       7.65594      1.76723     11.03145        -0.294499      0.092781      0.400180
O       7.58855     13.51072     10.90788         0.840925     -0.889985      0.707096
O       7.44042      5.68234      2.54066         2.557167     -0.400133      0.613050
O       7.56124      5.81755     15.24343         0.028962     -0.276932      0.088789
O       7.54838      5.71647      6.85817         0.055545     -0.135361      0.416022
O       7.57404      5.83428     10.99938        -0.152559     -0.236434     -0.058649
O       7.60964      9.47311      2.44139        -0.647538     -0.255901      0.085013
O       7.60582      9.37767     15.32900         0.084684     -0.029648      0.019463
O       7.66859      9.48999      6.96709        -1.102125      0.004738     -0.159197
O       7.63513      9.36977     11.21147        -1.218029      0.624100     -0.563687
O      11.36387      1.80540      2.61233        -1.258512      0.370641      0.350536
O      11.30579      2.04327     15.42537         0.486247     -0.404169     -0.279242
O      11.32435     13.23945      2.60155        -0.709093      0.443164      0.375518
O      11.34715     13.13951     15.30603         0.103781      0.252447      0.198375
O      11.41738      1.80334      6.84855        -0.018712      0.044265     -0.437639
O      11.41312     13.37328      6.85065        -0.161596     -0.120610     -0.001827
O      11.43259      2.01113     11.12928        -0.577007     -0.701244     -0.034300
O      11.42495     13.26702     10.90503        -0.535358     -0.108705      0.954134
O      11.35958      5.51510      2.83730        -0.161653      0.690833     -0.560402
O      11.39042      5.68599     15.23832        -0.313737     -0.551048      0.513295
O      11.38837      5.69011      6.89724         0.183945     -0.112983     -0.434489
O      11.38285      5.66662     10.87803         0.114914      0.085660      0.480885
O      11.33054      9.35331      2.67513        -0.297933      0.124536     -0.192877
O      11.40182      9.57766     15.32203         0.082675     -0.199278      0.189448
O      11.42687      9.38691      6.80803        -0.027830      0.428579     -0.282530
O      11.41248      9.40225     10.99423         0.649081      0.795626      0.572628
O       1.89570      3.73428      2.47436        -0.085782      0.497312      0.217826
O       1.77910      3.78255     15.22280        -0.419210     -0.176861      0.507795
O       1.88420     15.08071      2.63422        -0.444563     -0.077768     -0.233293
O       1.86049     15.19202     15.44750         0.245582      0.239601     -0.215451
O      13.21477      3.77868      2.66853         0.108877     -0.985510      0.363791
O      13.31894      3.87210     15.33098         0.060083     -1.112139      0.303669
O      13.18699     15.17971      2.57536         0.375717     -0.710187     -0.134820
O      13.08307      0.01474     15.48994         0.395442      0.284665     -0.286392
O       1.85021      3.81225      6.77596        -0.222867     -0.155301      0.162594
O       1.89497      0.05537      6.72276         0.212531     -0.736621     -0.125177
O      13.29177      3.74739      6.70235         0.044279      0.105377      0.075513
O      13.41925     15.17730      6.88521        -0.404165      0.826330     -0.033252
O       1.85196      3.81919     11.33371        -0.361771     -1.165132     -0.709913
O       1.89771     15.13862     11.07408         0.184536      0.996028     -0.181897
O      13.27977      3.81985     11.10026         0.484188     -0.788392      0.003034
O      13.19551     15.16631     10.84531        -0.251277      0.705290      0.927215
O       1.91574      7.50417      2.54757        -0.211278      0.702562     -0.124959
O       1.90869      7.61872     15.22497        -0.012922     -0.294620      0.210977
O      13.25963      7.51427      2.64512        -0.409282     -0.683868     -0.337388
O      13.20813      7.59126     15.43253        -0.034216      0.976998     -0.103418
O       1.84581      7.60076      6.97094         0.255615      0.018037     -0.605187
O      13.37814      7.57856      6.88958        -0.293274      0.233854      0.002896
O       1.93117      7.62049     11.12129        -0.024309      0.763129      0.245885
O      13.27057      7.60462     11.01850         0.362558     -0.257213      0.392350
O       1.86142     11.31276      2.65388         0.357686     -0.618008     -0.359479
O       1.65280     11.45183     15.29500         0.243331     -0.079394      0.161118
O      13.16980     11.29693      2.49596        -0.277120      0.671243      0.573202
O      13.40009     11.37924     15.29186         0.043350      0.296547      0.042548
O       1.86472     11.32151      6.66729         0.372727      0.845555      0.376211
O      13.31150     11.38373      6.77972         0.199850      0.166147      0.306270
O       1.76263     11.49514     11.07230         0.140900     -0.653346     -0.238943
O      13.35270     11.39477     11.12874        -0.328883      0.950981      0.090580
O       5.67539      3.73749      2.58110        -0.355838      0.062865      0.028690
O       5.71920      3.75570     15.27061        -0.269504      0.743315     -0.009990
O       5.82949     15.09764      2.58844        -0.843268      0.108341     -0.579402
O       5.63352      0.14252     15.29777        -0.133491     -2.013360     -0.237156
O       5.65634      3.85176      6.99153        -0.085228     -1.352254      0.000283
O       5.79062      0.04921      6.91099        -0.619769     -1.015665     -0.219556
O       5.85230      3.72884     11.10933        -0.240186      0.914850     -0.476789
O       5.62678     15.08050     11.12249         0.045100      1.437700      0.404408
O       5.62868      7.48516      2.55236         0.530318      1.646266     -0.240052
O       5.46800      7.50677     15.34443         0.102745      1.156572     -0.360939
O       5.68704      7.58512      6.84692         0.181512      0.262546      0.143085
O       5.56919      7.53290     11.10194        -0.200882      1.012729     -0.048383
O       5.74381     11.38057      2.29614        -0.405458     -0.890051      0.619410
O       5.70213     11.44102     15.09334         0.081893     -0.975628      1.084738
O       5.64655     11.37235      6.86718         0.026355     -0.045422     -0.044063
O       5.73018     11.38157     11.07745         0.627636     -0.264214      0.125629
O       9.36201      3.76398      2.69767         0.491251      0.401953      0.282580
O       9.33959      3.83904     15.26265         0.430797     -0.679081      0.454293
O       9.25474      0.01083      2.51605         0.938218     -0.655364      0.719637
O       9.46661     15.15900     15.20511         0.279709      0.792298      0.304667
O       9.43537      3.74929      6.98791         0.525235      0.175228     -0.290344
O       9.39776     15.13187      7.07644         0.128956      0.839503     -0.798093
O       9.45605      3.89754     11.00166        -0.201355     -1.212049      0.004188
O       9.61930      0.00279     11.09713        -0.000105      0.119795      0.091827
O       9.41721      7.48842      2.56584         0.223052      0.971146      0.345017
O       9.58417      7.45445     15.45511        -0.024829      2.382418     -0.097647
O       9.47431      7.59913      6.90772         0.138543     -0.242718     -0.430808
O       9.54617      7.67246     11.25397         0.060720     -1.949260     -0.311165
O       9.45230     11.39557      2.58804         0.444665     -0.412609     -0.076970
O       9.35238     11.39985     15.45939         0.265676     -1.115698     -0.411583
O       9.54277     11.33207      6.92476         0.022758      0.479769     -0.433159
O       9.49691     11.36335     11.11064        -0.381422      0.824447      0.081500
