  # total energy = -7868.19687113 
CRSYTAL
PRIMVEC
    15.010000000000000    0.0000000000000000    0.0000000000000000
     0.0000000000000000   15.010000000000000    0.0000000000000000
     0.0000000000000000    0.0000000000000000    16.400000000000000
PRESSURE
17.7515 17.6077 8.22669 0.048911 -0.01692 -0.108835
PRIMCOORD
320 1
Pb       3.73760      3.76094      4.19808         0.350552     -0.179361     -0.500312
Pb       3.76633      3.74026      0.08948        -0.529856     -0.255883     -0.522199
Pb       3.75141      0.00432      4.10990        -0.270643      0.125327     -0.054412
Pb       3.64588     14.98777      0.02656         0.552314      0.559455     -0.077992
Pb       0.01955      3.71536      4.06794        -0.123351      0.117238      0.335102
Pb       0.03516      3.84410     16.39340        -0.112952     -0.815826      0.134479
Pb       0.07124     14.95578      4.01872        -0.591811      0.512739      0.719425
Pb      14.97505      0.02105     16.38072        -0.286939      0.300762     -0.234734
Pb       3.85505      3.77015      8.19697        -0.118100     -0.636853      0.090144
Pb       3.76451     14.85470      8.24569        -0.010678      0.895693      0.354406
Pb       0.08042      3.74314      8.18149        -0.205244      0.026021     -0.167895
Pb       0.09649     15.00382      8.26634        -0.307242      0.052342     -0.386960
Pb       3.70713      3.75752     12.30491         0.273579     -0.438181      0.484867
Pb       3.77623     14.96390     12.34297        -0.265243      0.214916      0.258215
Pb       0.02994      3.76125     12.24146        -0.564560      0.025014      1.346273
Pb      14.99486     15.00775     12.31791        -0.002744     -0.443796      0.264977
Pb       3.70581      7.43653      4.13316        -0.103694      0.233181      0.019855
Pb       3.69246      7.44023      0.02963        -0.138257      0.229500      0.029158
Pb      14.85430      7.48556      4.07993         0.603968      0.144093      0.114321
Pb      14.94343      7.54940     16.35875         0.429594     -0.425785      0.604790
Pb       3.75059      7.44357      8.23615        -0.407392      0.032048     -0.316673
Pb      14.92592      7.45475      8.17293         0.260483      0.105874     -0.035790
Pb       3.75522      7.48941     12.32945        -0.282672     -0.409957      0.277353
Pb       0.00773      7.52018     12.31503         0.181436     -0.671045      0.086161
Pb       3.67074     11.36183      4.06017        -0.120696     -0.655944     -0.216635
Pb       3.70024     11.32789     16.36444         0.025567     -0.631226      0.460216
Pb      14.89395     11.33960      4.07429         0.093843     -0.502580      0.370360
Pb      14.89701     11.17954     16.36184         0.320411      0.489674      0.601340
Pb       3.71850     11.24628      8.26541        -0.147108     -0.161777     -0.346973
Pb      14.91525     11.22652      8.24996         0.055145     -0.113622     -0.540130
Pb       3.69296     11.25409     12.35406        -0.143600      0.055504      0.116383
Pb      14.94708     11.24168     12.33158         0.290393      0.419158     -0.121789
Pb       7.49613      3.61453      4.21193         0.235343      0.605732      0.196399
Pb       7.48542      3.72399      0.04859         0.293641     -0.217959     -0.815016
Pb       7.47552      0.05404      4.14866         0.361932     -0.441095     -0.026389
Pb       7.54096      0.09953      0.07533         0.047930     -0.583070     -0.496837
Pb       7.55187      3.73925      8.19923        -0.710824      0.000052      0.149606
Pb       7.54489     14.84735      8.25481        -0.332721      0.198650      0.158155
Pb       7.61184      3.68408     12.28963        -0.968810      0.192288      0.212203
Pb       7.52335      0.01263     12.40377        -0.159704     -0.247599     -0.747515
Pb       7.43100      7.52664      4.18730        -0.057994     -0.165961     -0.275846
Pb       7.45676      7.50071      0.06130         0.028728      0.363235     -0.363509
Pb       7.43167      7.55558      8.17101         0.387010     -0.747092      0.533296
Pb       7.44958      7.42320     12.35340         0.458213      0.022005      0.186862
Pb       7.35924     11.27871      4.08738         0.225687     -0.138506     -0.046827
Pb       7.48917     11.20602      0.00800         0.001665      0.352948      0.141600
Pb       7.36434     11.18074      8.30072         0.131355      0.326156     -0.213842
Pb       7.46689     11.17078     12.43815         0.110245      0.122129     -0.554620
Pb      11.30340      3.68825      4.08262        -0.377803      0.200583      0.440553
Pb      11.19932      3.71140      0.00009         0.737447      0.136831      0.174221
Pb      11.17923      0.05626      4.12074         0.351512     -0.480346      0.068646
Pb      11.24625      0.05900      0.02419        -0.126059     -0.701344      0.199311
Pb      11.26443      3.74074      8.17128        -0.125722     -0.231523      0.118257
Pb      11.24296     14.93808      8.22370        -0.351023      0.208911     -0.191181
Pb      11.32593      3.76070     12.32368        -0.345156     -0.412530     -0.022354
Pb      11.29445     15.00203     12.25519        -0.797752     -0.121437      0.220112
Pb      11.19577      7.47119      4.07682        -0.518405      0.112101      0.150584
Pb      11.25471      7.53324      0.01342        -0.203981     -0.245934      0.352033
Pb      11.26574      7.53185      8.17310         0.031479     -0.255399      0.375912
Pb      11.34057      7.54721     12.32652        -0.892803     -0.443449     -0.237423
Pb      11.18969     11.25685      4.10767        -0.027785      0.525531      0.225019
Pb      11.25959     11.26223      0.00467        -0.540916      0.189405      0.284927
Pb      11.15937     11.13269      8.17226         0.417073      0.461550     -0.112084
Pb      11.32088     11.19842     12.30780        -0.702303      0.110652     -0.175132
Ti       1.87442      1.83955      2.06873         0.504837      0.466894     -0.118144
Ti       1.88018      1.84010     14.34282        -0.165173      1.455614      1.593691
Ti       1.73911     13.08300      1.96283         1.163196      0.089916      1.190559
Ti       1.82705     13.13601     14.42293        -0.272456     -0.335991     -1.405937
Ti      13.13806      1.83719      2.15257         0.024292     -0.584851     -0.208329
Ti      13.13981      1.81659     14.47899         0.750076      0.677304      0.358917
Ti      13.13509     13.13210      2.04959        -1.363093     -0.103783      0.252232
Ti      13.05053     13.06135     14.36149         0.694213      1.476349      0.357396
Ti       1.84741      1.80665      6.16711        -0.050663      0.100065      0.177395
Ti       1.83572     13.12826      6.22796         0.742152     -1.010437      0.524955
Ti      13.13834      1.87025      6.22522        -0.205757     -0.321606     -0.846779
Ti      13.10495     13.19570      6.17333        -0.585786     -0.899782      0.310400
Ti       1.79576      1.89444     10.37127         1.360006     -0.899536     -0.729954
Ti       1.77224     13.08304     10.35240         0.034915      0.882486     -0.097738
Ti      13.10814      1.82200     10.25264        -1.495651      0.329352     -0.636147
Ti      12.98771     13.09491     10.23261         1.913789     -0.730406      0.241003
Ti       1.87457      5.60482      2.13746        -0.003226      0.687428     -1.036158
Ti       1.86281      5.62148     14.44927         0.326709     -0.363214      0.400594
Ti      13.07243      5.54543      2.10367         0.353135      1.047428      0.170191
Ti      13.11295      5.58663     14.39984         0.822199     -0.657764     -0.085752
Ti       1.91688      5.54296      6.17849        -0.549010      0.979716     -0.022832
Ti      13.12358      5.55552      6.19642         0.569766      1.237072      0.321283
Ti       1.84466      5.63324     10.37817         0.169403      0.407131     -0.197576
Ti      13.07402      5.54190     10.38444         0.929070      0.843466     -0.743805
Ti       1.77011      9.35914      2.09288         0.029759     -0.619462      0.097703
Ti       1.83790      9.33179     14.35533         0.173550      0.758792      0.597434
Ti      12.98889      9.33547      2.11501         1.225970      0.388848      0.299972
Ti      13.11488      9.35195     14.43110        -0.063581     -0.055464      0.932757
Ti       1.82264      9.36111      6.18691         0.583544     -0.041102     -0.138217
Ti      13.13297      9.38036      6.14481        -0.188597      0.344181      0.276857
Ti       1.87079      9.39267     10.29656        -0.476301     -0.879745     -0.623010
Ti      13.17392      9.31225     10.39646        -0.643548      0.318231     -1.751982
Ti       5.63691      1.89142      2.11409        -0.394100     -0.754452     -0.463240
Ti       5.62900      1.86441     14.42381        -0.585626     -0.342468     -0.659880
Ti       5.55158     13.17120      2.06623         0.003608     -0.660791      0.385794
Ti       5.64654     13.16576     14.46000        -0.574520     -0.138979     -0.320542
Ti       5.58708      1.77291      6.21668        -0.691660      0.890783     -0.198356
Ti       5.57435     13.11171      6.21286         0.509552     -0.328836      1.162148
Ti       5.57312      1.76963     10.33727        -0.154616      0.833953     -0.598931
Ti       5.51671     13.03589     10.35305         1.445796      0.442901     -0.674306
Ti       5.71762      5.58148      2.01146        -0.779236      0.371065      1.169512
Ti       5.67306      5.56934     14.40171        -0.628230      0.268888      0.437820
Ti       5.65866      5.60256      6.16517        -0.636203     -1.137447     -0.496138
Ti       5.64097      5.53401     10.36910        -0.030268     -0.579680     -0.459905
Ti       5.49199      9.31589      2.17317         0.250945      0.487359     -0.646589
Ti       5.54880      9.38017     14.50201         0.795167     -0.740795     -0.274014
Ti       5.53257      9.36214      6.26753         0.052622      0.229332     -0.930845
Ti       5.60677      9.26719     10.39030         0.794287      0.791380     -0.859627
Ti       9.40258      1.89901      2.07360        -0.358506     -0.797812      1.215306
Ti       9.42198      1.87323     14.31750        -0.393004     -0.242386      0.928130
Ti       9.36313     13.14303      2.13944         0.359139      0.204588     -0.965142
Ti       9.39146     13.12673     14.41369        -0.534183      0.098835     -0.241591
Ti       9.31246      1.86003      6.27174         0.485682     -0.208738     -0.489459
Ti       9.35645     13.11862      6.19891         0.329652      0.558617     -0.130453
Ti       9.31703      1.83567     10.24923         0.355842     -0.776995      0.646751
Ti       9.32048     13.01892     10.34698        -0.285132      1.536372     -0.247605
Ti       9.35136      5.58513      2.06217         0.598394      0.841288      0.237105
Ti       9.40788      5.64990     14.50803         0.302375     -0.550316     -1.286547
Ti       9.38418      5.65022      6.22931        -0.302968     -0.795373     -0.067162
Ti       9.41289      5.57455     10.33402        -1.789591      0.732494     -1.084817
Ti       9.23632      9.41512      2.08411         1.662789     -0.730034     -0.197129
Ti       9.34853      9.36551     14.43527         0.267797     -0.060219     -0.187094
Ti       9.29560      9.39166      6.23824         0.498816      0.194655      0.267823
Ti       9.35851      9.31558     10.39070         0.537237     -0.226931     -0.301396
O       2.04562      1.86158      0.25817        -0.244961      0.100459      0.837861
O       1.77541      1.92421     12.59327        -0.087644     -0.448289     -1.093738
O       1.75562     13.15362      0.18419        -0.025658     -0.242120     -0.331181
O       1.85819     13.05159     12.49142         0.217905      0.142294      1.559281
O      13.09503      1.70720      0.34631        -0.070828      0.440183      0.018171
O      13.07634      1.85990     12.69688         0.046123     -0.148311     -0.789098
O      13.32811     13.12886      0.24019        -0.671138      0.194820      0.356949
O      12.96172     13.03847     12.55008         0.448088      0.160580      0.308205
O       1.88297      1.84765      4.32496        -0.173599     -0.043645      0.372037
O       1.90249     13.16030      4.40437         0.281301     -0.190515      0.207082
O      13.23173      1.89055      4.32564        -0.102042     -0.108251      1.255114
O      13.09561     13.10351      4.36765        -0.035221     -0.015519      0.356725
O       1.79647      1.87822      8.54752        -0.209358      0.015069      0.588365
O       1.84391     13.05359      8.48791        -0.489094      0.226735      1.187254
O      13.17284      1.82309      8.43225         0.061423      0.322568      0.907164
O      13.13885     13.13533      8.42676         0.041127     -0.216995      0.549996
O       1.87433      5.65108      0.22823         0.255870      0.040723      1.519387
O       1.90709      5.66710     12.65935        -0.330277     -0.051636     -0.702475
O      12.99139      5.61869      0.33880         0.567723      0.097826     -0.150524
O      13.16003      5.48059     12.55481        -0.581551      0.728272      0.971359
O       2.04155      5.52898      4.35117        -0.325362     -0.107324      0.073503
O      13.06379      5.55860      4.42279         0.034297      0.192544     -0.783674
O       1.83865      5.67240      8.57987         0.161498     -0.522689     -0.398097
O      13.13160      5.59153      8.56343         0.059950     -0.065149     -0.030080
O       1.89711      9.25462      0.29366        -0.215410      0.263729     -0.077048
O       1.85497      9.33455     12.55324         0.186889      0.249220     -0.086857
O      13.13166      9.27864      0.29214        -0.420376      0.450942      0.128565
O      13.13298      9.26730     12.64775         0.083310      0.583120     -0.317337
O       1.86624      9.41412      4.36748         0.016647     -0.092280      0.277787
O      13.18201      9.40606      4.31890        -0.192136     -0.157326      0.279531
O       1.77360      9.25538      8.48198         0.041673      0.289672      0.740028
O      13.14273      9.24630      8.55439         0.233251      0.413602     -0.072679
O       5.53974      1.75078      0.24569         0.403753      0.273974      0.760445
O       5.62819      1.90887     12.58029         0.159649     -0.208849      0.386965
O       5.56266     13.17459      0.28421         0.271670      0.166119     -0.102021
O       5.52962     13.03150     12.60251         0.272068     -0.223918      0.286355
O       5.71374      1.73840      4.27119        -0.587022      0.483838      1.370610
O       5.46552     13.12954      4.42614        -0.039180     -0.063934     -0.873674
O       5.59313      1.85683      8.49910        -0.186784     -0.151115      0.347197
O       5.59952     13.05224      8.46341         0.354568      0.320568      1.942181
O       5.76088      5.72642      0.18237        -0.319593     -0.678357      1.118609
O       5.60186      5.51963     12.60865         0.334523      0.071411     -0.118507
O       5.70075      5.46237      4.32230        -0.493381      0.457829      0.703518
O       5.52749      5.62089      8.53368         0.251731      0.006835      0.360092
O       5.59150      9.24355      0.30505        -0.003586      0.332387      0.586925
O       5.66389      9.38755     12.61628        -0.221450      0.346215      0.582680
O       5.58992      9.33921      4.38445        -0.047854      0.273029      0.956145
O       5.65874      9.22891      8.49301         0.057289      0.160527      1.180368
O       9.46235      1.86497      0.29636        -0.536394     -0.273308     -0.083277
O       9.46375      1.88141     12.51537        -0.374891     -0.232813      0.529995
O       9.38133     13.26725      0.25392        -0.352900     -0.869008      1.474287
O       9.45542     13.06982     12.55292        -0.418140      0.259828      0.969714
O       9.26374      1.81416      4.39908         0.309340     -0.055047      0.515601
O       9.49655     13.20270      4.38098        -0.603976     -0.228179      0.149146
O       9.29725      1.87705      8.46658        -0.266675      0.228751     -0.882539
O       9.39645     13.10756      8.49437        -0.372625     -0.322496      0.613710
O       9.48856      5.56962      0.22117        -0.644012     -0.077286      1.064313
O       9.48352      5.64060     12.63147        -0.336325     -0.044165      0.405175
O       9.41324      5.59921      4.41135        -0.232283      0.260886      0.249265
O       9.34924      5.61123      8.45508         0.160840     -0.552826      0.998226
O       9.44991      9.45735      0.25953        -0.406730      0.012020      1.117792
O       9.30311      9.25905     12.56796         0.463325      0.294945      1.295403
O       9.21721      9.40604      4.46770         0.276630     -0.280139     -0.403012
O       9.30015      9.43055      8.55997         0.343127     -0.102018     -0.543391
O       3.81397      2.13361      2.34267        -0.930470      0.110804      0.220933
O       3.70477      1.70895     14.57610         1.281571      0.332214      0.223550
O       3.60789     12.91607      2.17839         0.512632     -0.294294      0.543091
O       3.71443     13.32499     14.67429         0.189159     -0.651645      0.032348
O      14.99989      1.59783      2.24887         0.800492      0.390763      0.250374
O       0.07204      1.95824     14.90351        -1.703866     -0.027423     -0.530074
O      14.96342     13.23230      2.53694         0.650064      0.547620     -0.643271
O      14.98541     13.08299     14.52543         0.268663     -0.681697     -0.030832
O       3.63761      1.74403      6.49386         1.920239      0.378618     -0.109814
O       3.79504     13.12854      6.70015        -1.354978     -0.140275     -1.011893
O      14.99570      1.82289      6.54357         0.481139     -0.156247     -0.139131
O       0.00297     13.10618      6.38170        -0.136754      0.016539      0.386821
O       3.71029      2.07888     10.62510         0.001046     -0.249884     -0.048813
O       3.67254     12.85603     10.56490         0.365605      0.130727     -0.079942
O      14.89589      1.74074     10.66785         1.184160     -0.377122     -0.196325
O      14.92323     13.22283     10.65308         0.014703      0.519696     -0.288520
O       3.78794      5.42459      2.28216         0.827982     -0.161929     -0.040461
O       3.77858      5.74326     14.66212         0.102447     -0.111427      0.173662
O       0.00997      5.80008      2.42977        -0.888483     -0.383106     -0.250176
O      14.97598      5.52047     14.85646        -0.290912      0.656898     -0.871879
O       3.77521      5.59463      6.52805        -0.366830     -0.232930      0.015095
O       0.03270      5.49217      6.43075         0.097223      0.469255      0.215186
O       3.74276      5.44931     10.72202        -0.018828      0.223617     -0.595798
O      14.96558      5.71091     10.70862         0.730336      0.022832     -0.397587
O       3.66205      9.51842      2.32032         0.384502     -0.046800      0.323801
O       3.72483      9.25844     14.66510         0.367653     -0.203099     -0.021277
O      14.93278      9.03465      2.30934        -0.179504      0.224631      0.016662
O      14.98831      9.50653     14.78833        -0.125736     -0.501222     -0.825485
O       3.76665      9.35184      6.64795        -1.035575     -0.540334     -0.367319
O      15.00549      9.39892      6.49631        -0.040557      0.038091      0.033213
O       3.76298      9.51921     10.47713        -0.203034      0.112929      0.618684
O       0.00232      9.14068     10.69558         0.725742      0.436678     -0.316127
O       7.53476      1.55218      2.34143        -0.199273      0.268923     -0.563264
O       7.52179      1.95172     14.69944         0.915018     -0.159862     -0.027839
O       7.42983     13.29663      2.40758         0.196831     -0.395832     -0.118331
O       7.46465     13.06890     14.70416         1.045826     -0.209603     -0.170191
O       7.38603      1.85731      6.41256         1.270735     -0.270053      0.264901
O       7.47385     13.06985      6.45596         0.250063     -0.046632      0.042232
O       7.43494      1.66695     10.56575         0.796274     -0.381564      0.448490
O       7.49082     13.42245     10.57770        -0.148000     -0.841569      0.045877
O       7.52722      5.86863      2.40852         0.300046     -0.451475     -0.480233
O       7.56378      5.57583     14.66105        -0.478805     -0.531860      0.093913
O       7.43965      5.58662      6.52884         1.406295      0.093860     -0.052074
O       7.48083      5.79256     10.59798         0.783299     -0.183032      0.180167
O       7.45133      9.42158      2.44325        -0.078977     -0.673055     -0.282341
O       7.52771      9.40987     14.83251        -0.590011      0.405696     -0.532245
O       7.44040      9.38478      6.59768         0.507563      0.156108     -0.417507
O       7.54249      9.17670     10.70243        -1.107761      0.171609     -0.414601
O      11.25913      1.95250      2.47455        -0.383615      0.253575     -0.259408
O      11.25321      1.76857     14.77847         0.278396     -0.054029     -0.470518
O      11.26675     12.99753      2.40887         0.131094     -0.411500     -0.510590
O      11.22299     13.19323     14.77572         0.650094     -0.304200     -0.144598
O      11.25400      1.89367      6.51349        -0.365055      0.350284     -0.268525
O      11.21657     13.15689      6.58664         0.783648      0.078773     -0.354990
O      11.19225      2.05930     10.38691         1.298984      0.238329      0.615046
O      11.23903     12.94121     10.62065        -0.543005     -0.468343     -0.308429
O      11.20534      5.38213      2.38257        -0.001141      0.015317      0.313497
O      11.32791      5.69301     14.70442        -1.120010     -0.008034     -0.121693
O      11.26780      5.53792      6.54240        -0.587797      0.279757     -0.181090
O      11.20285      5.50126     10.57701         1.401148     -0.535875      0.231689
O      11.19206      9.53382      2.54247         0.044212     -0.300117     -0.644880
O      11.26867      9.48242     14.78432        -0.164400     -0.751588     -0.712744
O      11.28040      9.24897      6.54420        -0.881392      0.452731     -0.309255
O      11.30303      9.45471     10.66407        -0.766906      0.125936      0.122926
O       1.69191      3.73464      2.35931         0.019957     -0.411232     -0.113212
O       1.86782      3.78578     14.72553         0.689631     -0.645645     -0.036275
O       2.10746     14.99442      2.39443        -0.556091     -0.398412     -0.445997
O       1.72112      0.02866     14.63683         0.008087     -1.506585     -0.123628
O      13.23598      3.73535      2.49728         0.301131     -0.649665     -0.545256
O      13.03026      3.71477     14.85533         0.224129      0.079175     -0.541236
O      12.94713     14.94164      2.42433         0.305501      0.990234     -0.017096
O      13.29052     14.95225     14.64404        -0.399577      0.193615      0.036134
O       1.90540      3.67281      6.47745         0.023756      0.050081      0.116012
O       1.95705     14.94478      6.67862        -0.959746      0.232406     -0.678444
O      13.21202      3.75204      6.49401        -0.364620     -1.025313      0.332118
O      13.07616      0.01315      6.48968         0.402865     -0.170212     -0.105026
O       1.73239      3.72605     10.73582         0.002520      0.839039     -0.817504
O       2.04762      0.02943     10.68464        -0.754672     -0.855511     -0.468007
O      13.24804      3.69402     10.71241        -0.374288     -0.136147     -0.801339
O      12.81398     14.94260     10.53865         0.993662      0.965826     -0.092692
O       2.05064      7.45657      2.44956         0.064818      0.142397     -0.088675
O       1.71183      7.54006     14.64461         0.104088     -1.012981      0.207437
O      12.79857      7.44796      2.45181         0.707764     -0.031940     -0.331396
O      13.15024      7.48089     14.72195         0.178611      0.457372     -0.437450
O       1.92858      7.43787      6.36535        -0.206329      0.251602      0.225106
O      13.22944      7.50309      6.42818        -0.228521     -0.872276      0.105068
O       2.02334      7.49799     10.62442         0.118671     -0.148342      0.109434
O      13.05359      7.50083     10.63041        -0.488192     -2.127853      0.419482
O       1.51351     11.22710      2.33339         0.570039      0.347656     -0.328160
O       2.06134     11.18344     14.68237        -0.522208      1.504886     -0.265725
O      13.35495     11.25272      2.25213        -0.332401     -0.943606      0.158026
O      13.09741     11.27866     14.78054        -0.119749     -1.124457     -0.321428
O       2.00033     11.20277      6.60321        -0.498093      0.803535     -0.604498
O      13.09244     11.24204      6.45529         0.027067      0.061928      0.277118
O       1.59715     11.23227     10.63194         0.314681     -0.475378     -0.423395
O      13.31823     11.16768     10.59845        -0.213040      1.273282     -0.069047
O       5.97237      3.72474      2.36065        -0.261052      0.285042     -0.853316
O       5.63034      3.65682     14.86510        -0.352044      1.998559     -0.284985
O       5.30817     15.00330      2.37960         0.342388     -0.564397     -0.320766
O       5.77796      0.00339     14.57594        -0.074949     -0.362173      0.259771
O       5.59038      3.67988      6.47756        -0.457770     -0.088755      0.008332
O       5.63223     14.97866      6.62088        -0.135332     -0.469299     -0.489397
O       5.88409      3.68264     10.56291        -0.511595      0.557159      0.058998
O       5.43696     14.91042     10.68002        -0.318959      0.487512     -0.244783
O       5.59682      7.45923      2.48047        -0.567933     -0.074132     -0.256582
O       5.79912      7.50056     14.68082        -0.297458     -0.208299     -0.419683
O       5.62159      7.42224      6.37249         0.040554      1.290857      0.291636
O       5.53907      7.45886     10.70533        -0.450952     -0.102970     -0.137311
O       5.63448     11.19653      2.48676         0.091898      1.374235     -0.426071
O       5.59397     11.27298     14.91880        -0.329504     -0.611736     -0.958120
O       5.53303     11.22490      6.65940         0.507607     -0.053309     -0.879408
O       5.87080     11.21459     10.54308         0.043116     -0.419262      0.227663
O       9.18997      3.73368      2.44101        -0.187743     -0.368250     -0.437841
O       9.52129      3.71093     14.80582        -0.389384      0.258619     -0.898157
O       9.57928     14.97394      2.41425        -0.271748      0.732189     -0.349338
O       9.37008     14.98310     14.70862        -0.514521      0.915751     -0.538495
O       9.21399      3.69464      6.47472         0.675910      1.217346      0.095222
O       9.36506      0.01979      6.58019        -0.272390     -0.646470     -0.203701
O       9.19725      3.68393     10.66331         0.112729      1.270926     -0.623963
O       9.60165      0.00066     10.52091        -0.104142     -0.663070      0.303826
O       9.56735      7.50822      2.24307        -0.161292      0.150692      0.487457
O       9.33283      7.50228     14.84451         0.421984      0.329860     -0.540283
O       9.33693      7.49456      6.51084        -0.074304      0.085729     -0.057717
O       9.58370      7.47393     10.47280        -0.018082     -0.462686      0.461316
O       9.35976     11.25443      2.46393        -0.810576      0.551811     -0.134100
O       9.38485     11.23634     14.75112         0.024870      0.569522     -0.323155
O       9.51752     11.29578      6.43763        -0.512062     -1.684516      0.197780
O       9.29761     11.21769     10.64243        -0.493257     -0.229511      0.142797
