  # total energy = -7877.89989366 
CRSYTAL
PRIMVEC
    15.2000000000000000    0.0000000000000000    0.0000000000000000
     0.0000000000000000   15.2000000000000000    0.0000000000000000
     0.0000000000000000    0.0000000000000000    17.000000000000000
PRESSURE
7.84508 7.82719 1.82215 -0.341574 0.125029 -0.098186
PRIMCOORD
320 1
Pb       3.85906      3.61719      4.14754         0.421285      0.598011     -0.227961
Pb       3.71707      3.67229     16.84337        -0.025658      0.477862      0.681610
Pb       3.87661     15.06618      4.09624         0.031107      0.024291      0.245116
Pb       3.59128     15.17957     16.87449         0.277879     -0.298514      0.786630
Pb       0.00863      3.49018      4.14737        -0.131674      1.275965      0.783664
Pb      15.12120      3.87450      0.00361         0.324370     -0.741953      0.335128
Pb      15.12645     15.01125      4.27759         0.126152      0.127527     -0.640708
Pb      15.02108     15.19885      0.12185         0.665324     -0.008673     -0.309514
Pb       3.59921      3.97038      8.58303         0.569100     -0.480791     -0.549422
Pb       3.80607     15.14020      8.51646         0.087972      0.559305     -0.305323
Pb       0.07955      3.78504      8.50596        -0.281356      0.371988     -0.503628
Pb       0.00704      0.02231      8.21770         0.209753     -0.461088      1.160874
Pb       3.72434      3.81719     12.68244        -0.032297     -0.383471      0.077777
Pb       3.69383      0.09178     12.77874        -0.142344      0.059791     -0.135994
Pb      15.02607      4.04664     12.72101         0.378933     -1.033963     -0.051974
Pb      15.10148      0.12995     12.74666         0.437989     -0.739253      0.273330
Pb       3.85784      7.47856      4.14065         0.103373     -0.452786      0.526018
Pb       3.64071      7.53133     16.78725         0.333026     -0.808883      0.732619
Pb       0.00444      7.56544      4.29753        -0.327309     -0.517932     -0.081092
Pb      14.93072      7.52980      0.07166         1.090590      0.073079     -0.099209
Pb       3.83710      7.60636      8.54153         0.018405     -0.138555     -0.095298
Pb       0.13112      7.64195      8.46262        -0.389801     -0.229818     -0.174092
Pb       3.77673      7.70930     12.79250        -0.364248     -0.142260     -0.196393
Pb       0.03682      7.71644     12.76714        -0.406632     -0.130506      0.081425
Pb       3.97760     11.17498      4.13440        -0.437281      0.488806      0.397459
Pb       3.72686     11.38806     16.94592        -0.068994     -0.237275      0.168781
Pb       0.16454     11.23883      4.17650        -0.428803      0.464941      0.446744
Pb      15.06289     11.36148      0.04319         0.074046      0.135865     -0.164329
Pb       3.82029     11.40701      8.53280         0.251631     -0.473874     -0.546286
Pb       0.21216     11.45105      8.32617        -0.939317     -0.272917     -0.075630
Pb       3.82410     11.54693     12.72956        -0.457249     -0.616640      0.232704
Pb       0.05411     11.47439     12.87262        -0.225606     -0.015883     -0.176154
Pb       7.56871      3.78089      4.38840         0.180166      0.165683     -0.838588
Pb       7.54881      3.73899     16.87107        -0.217653     -0.061130      0.257291
Pb       7.60755     15.10270      4.21660        -0.271890      0.274628      0.492681
Pb       7.57861      0.00713     16.84656        -0.183589     -0.384462      0.744157
Pb       7.33206      3.72308      8.78085         0.556712      0.300734     -0.506344
Pb       7.60871      0.03360      8.63267        -0.224529     -0.097677     -0.423231
Pb       7.67211      3.88694     12.75823        -0.127684     -0.759732      0.024568
Pb       7.47999     15.00007     12.78209         0.613675      0.978981     -0.061575
Pb       7.60009      7.54356      4.03725        -0.302548     -0.864684      1.674688
Pb       7.75294      7.60575      0.01960        -0.079055     -0.044452     -0.488749
Pb       7.48085      7.56759      8.53583         0.395393     -0.268464      0.248589
Pb       7.50639      7.64981     12.66190         0.970585      0.077118      0.788355
Pb       7.63987     11.42920      4.33210        -0.406055     -0.343797      0.095853
Pb       7.46653     11.36339     16.92801         0.524124     -0.017914     -0.147583
Pb       7.70337     11.35596      8.69049        -0.309498     -0.134518     -0.756343
Pb       7.64158     11.50930     12.78419         0.405007     -0.590137     -0.237971
Pb      11.22083      3.77562      4.44207         0.009331     -0.137653     -0.872341
Pb      11.24567      3.72575     16.96708         0.354990      0.012687      0.314371
Pb      11.29922     15.15806      4.26065         0.187854      0.005371     -0.137535
Pb      11.32570      0.16109      0.10634         0.077606     -0.493513     -0.042263
Pb      11.39643      3.87238      8.51503         0.023963     -0.391006     -0.053097
Pb      11.52970      0.01070      8.39635        -0.352801     -0.374260      0.769538
Pb      11.36091      3.84212     12.64917         0.252535     -0.091763      0.130323
Pb      11.43653     15.19218     12.58634        -0.511024      0.087079      0.526386
Pb      11.26410      7.48937      4.31516         0.418406     -0.213156     -0.433095
Pb      11.45295      7.64428      0.00598        -0.884639      0.056965      0.533932
Pb      11.41372      7.59160      8.61671         0.229702     -0.137237     -0.296264
Pb      11.53774      7.76940     12.82336        -0.205666     -0.699917     -0.535683
Pb      11.29681     11.36256      4.27420         0.786602      0.003720      0.126547
Pb      11.36574     11.39447      0.02544        -0.259642     -0.221597     -0.057444
Pb      11.48843     11.33177      8.32576         0.000609      0.629408      0.681731
Pb      11.45047     11.51494     12.56134        -0.183598     -0.038687      1.020434
Ti       1.91861      1.77884      2.30047         0.424318     -0.244827     -1.460764
Ti       1.71605      1.83808     14.96161         0.184484     -0.277433     -0.109912
Ti       1.94251     13.18018      2.13605         0.219012      0.358369     -0.199711
Ti       1.80100     13.21976     15.01152        -0.641701      0.649138      0.164238
Ti      13.25947      1.84285      2.32920        -0.911359     -0.346853     -0.091888
Ti      13.28046      1.89989     14.92570        -0.060390     -0.570665      0.147705
Ti      13.31880     13.24908      2.26603        -1.026151     -0.686400     -0.536725
Ti      13.20359     13.30305     15.03470         0.613929      0.128629      0.167900
Ti       1.96939      1.80003      6.35585         0.274398      1.127118      1.157663
Ti       1.98474     13.31756      6.32043        -0.162504     -1.522655      1.272371
Ti      13.30719      1.90443      6.59425        -0.262305      1.339240     -1.340285
Ti      13.29630     13.27584      6.40144         0.252563     -1.278870     -0.805225
Ti       1.78256      1.90237     10.67180         0.512263      0.012113      0.545775
Ti       1.84989     13.33172     10.73889        -0.749375      0.631308      0.014044
Ti      13.32590      1.86759     10.68207        -0.172720      1.229524     -0.871187
Ti      13.34247     13.35198     10.65431        -0.183399     -0.694453     -0.784778
Ti       1.90634      5.59233      2.25505         0.057542     -0.305348     -1.224795
Ti       1.79862      5.57274     14.92163        -0.040003      0.279728      0.879255
Ti      13.32176      5.57548      2.26479        -1.103081      0.410022      1.073602
Ti      13.18886      5.65751     15.00064         1.187681     -0.536757     -1.172848
Ti       1.94793      5.66994      6.33130        -0.205533     -0.479850     -0.369044
Ti      13.34228      5.69178      6.43292         0.521094      0.026075      0.598978
Ti       1.88162      5.75321     10.80888        -0.367213     -0.415229     -0.011529
Ti      13.30534      5.77162     10.68365         0.541411      0.275082      0.056698
Ti       1.89664      9.34110      2.16083         0.587875      0.601261     -0.424473
Ti       1.80406      9.43040     15.08961        -0.296457      0.279799     -1.292992
Ti      13.25101      9.43783      2.41543        -0.277801     -0.143258     -0.444443
Ti      13.22193      9.48841     15.05080         0.179521      0.643019      1.106030
Ti       2.01891      9.44506      6.39515        -1.070424      0.606916     -0.249298
Ti      13.27162      9.42624      6.48147         1.108238      0.119050     -0.889664
Ti       1.91427      9.56803     10.81078         0.143523     -1.122773     -0.130402
Ti      13.35870      9.59209     10.66354         0.486958     -0.735276      0.408180
Ti       5.76547      1.74965      2.18123        -0.779173      1.469830      0.093943
Ti       5.59570      1.77169     15.03390         0.991182      0.369931     -1.851124
Ti       5.77145     13.15826      2.22020        -0.350623      0.318000     -1.172143
Ti       5.60767     13.20590     14.91448         0.179300      0.125230      1.036808
Ti       5.68889      1.87109      6.54732        -0.350191     -0.174742     -0.439106
Ti       5.71833     13.23627      6.57950         0.412430     -0.039092     -1.174075
Ti       5.63159      1.85833     10.75865         0.008040      0.790222     -0.020195
Ti       5.68600     13.31844     10.72332        -0.033325      0.424378     -0.264498
Ti       5.66645      5.62042      2.06599         0.616360     -1.141730     -0.268638
Ti       5.70618      5.63701     14.90562         0.061713      0.045850      0.296973
Ti       5.74930      5.63098      6.50264        -0.208638      0.227921     -0.398517
Ti       5.72949      5.73620     10.95795        -0.806967     -0.392690     -0.986281
Ti       5.63708      9.33977      2.13335        -0.077445      0.157439     -0.202319
Ti       5.63701      9.42941     14.89375         0.362109      0.196996     -0.681053
Ti       5.73005      9.41117      6.52131         0.120741      0.542863     -0.407259
Ti       5.71017      9.60644     10.82756        -0.254657     -1.142586     -0.835274
Ti       9.42989      1.80466      2.32757         0.715708      0.937004     -0.302700
Ti       9.49172      1.86044     14.86320        -0.113524      0.061659     -1.159767
Ti       9.48110     13.20501      2.19417         0.467590      0.487949     -0.086063
Ti       9.49177     13.32766     15.01800         0.087975     -0.787923     -0.835465
Ti       9.45325      1.86897      6.58979        -0.498422      1.309706     -1.202461
Ti       9.44656     13.30623      6.55369         0.259856     -0.475781      0.396092
Ti       9.46997      1.84244     10.67545        -0.446180      0.220957      0.741820
Ti       9.53171     13.26676     10.63601         0.189870      0.075295      0.276065
Ti       9.45569      5.59116      2.14670         0.843750     -0.478727      1.277285
Ti       9.51952      5.71349     14.96954        -0.548376      0.419476     -1.941120
Ti       9.55162      5.70652      6.62146        -1.081001     -0.622303     -0.549935
Ti       9.56091      5.68194     10.79764         0.164439     -0.172336     -0.164264
Ti       9.38043      9.45047      2.36499         1.130860     -1.062217     -1.738281
Ti       9.39091      9.50749     14.85308         0.916968     -0.026616      0.903861
Ti       9.47528      9.44857      6.58352        -0.467544     -0.050367     -0.904610
Ti       9.58143      9.45264     10.74260        -0.350828      0.855364     -0.540070
O       1.75451      1.68119      0.51718         0.537442      0.323935     -0.095977
O       1.71369      2.01141     13.19868         0.326105     -0.547669      0.201702
O       1.89210     13.25149      0.34173        -0.060149     -0.216749      0.871525
O       1.81225     13.31400     13.22216         0.140560     -0.490202     -0.163716
O      13.26387      1.80436      0.54468        -0.472661     -0.072955     -0.089587
O      13.30903      1.90239     13.12595        -0.325772     -0.003124      0.471236
O      13.25946     13.16051      0.41406        -0.038029      0.263347      1.314444
O      13.19992     13.33390     13.25168        -0.096386     -0.216267     -0.010365
O       2.08565      1.79704      4.59431        -0.333163      0.019204     -0.525980
O       2.11242     13.27593      4.59883        -0.419644     -0.431039     -1.058247
O      13.19365      1.95247      4.78064         0.187568     -0.199067      0.197706
O      13.22976     13.24188      4.61250         0.541299      0.384260      0.151273
O       1.76512      1.85984      8.87457         0.212373     -0.187012      0.331373
O       1.69989     13.31568      8.92428         0.763295     -0.005523      1.282117
O      13.50585      1.80073      8.85290        -0.454048      0.129817      0.562177
O      13.32735     13.31999      8.87114         0.320490      0.031650     -0.318055
O       1.91839      5.56240      0.36609        -0.219484      0.131419      1.297176
O       1.80253      5.51143     13.14907         0.041300      0.158528     -0.363702
O      13.23348      5.61984      0.45649         0.442140      0.079656      0.091507
O      13.29405      5.58992     13.15526        -0.592499      0.629059      1.456739
O       1.99867      5.55628      4.53563         0.084687      0.423254      0.971432
O      13.20697      5.67785      4.67584         0.200651     -0.382587     -0.179567
O       1.91057      5.75138      9.01658        -0.004007      0.159548     -0.314499
O      13.42922      5.97072      8.92640        -0.445849     -0.577050     -0.198135
O       1.97645      9.43350      0.34424        -0.261282     -0.605948      0.397781
O       1.77547      9.53952     13.22139         0.232455     -0.268458      1.183160
O      13.35745      9.45549      0.53818        -0.530996     -0.442443      0.996270
O      13.32132      9.54975     13.33516        -0.155128     -0.083624     -1.472603
O       1.99293      9.63225      4.59425         0.135880     -0.651671      0.863390
O      13.19988      9.34659      4.67666         0.430385      0.201990     -0.052050
O       2.03476      9.40559      9.01955        -0.342598      0.684141      0.164359
O      13.35871      9.47240      8.90773        -0.015591      0.061127     -0.243119
O       5.68656      1.83204      0.43197         0.465223     -0.263458     -1.601445
O       5.59081      1.66498     13.20445         0.439851      0.633747      0.876382
O       5.86841     13.17673      0.41458        -0.298493     -0.100548      0.639774
O       5.75083     13.17921     13.11735        -0.433473      0.426733     -0.237048
O       5.69378      1.96413      4.72741         0.092143     -0.211857      0.409048
O       5.79263     13.16642      4.71610        -0.045463     -0.003553      0.879494
O       5.53223      1.81516      8.93498         0.394806      0.063234      0.622494
O       5.75432     13.42453      8.94890        -0.755044     -0.163346      0.052333
O       5.62688      5.64931      0.25299         0.394800      0.019422      0.277815
O       5.89706      5.61949     13.08067        -0.777797      0.275913      1.186536
O       5.70380      5.68325      4.69416         0.217591     -0.390524      1.175907
O       5.67089      5.77471      9.15513         0.026988     -0.061659     -0.181320
O       5.49687      9.34566      0.36920         0.659178     -0.085124     -0.045062
O       5.77425      9.71463     13.07919        -0.438859     -0.757077      0.788606
O       5.78340      9.28087      4.72572        -0.480941      0.649361      0.148164
O       5.61818      9.53852      9.01875        -0.059996     -0.310091      0.241276
O       9.53361      1.81606      0.50284        -0.004296      0.226359     -0.352903
O       9.54509      1.63939     13.05438        -0.324634      0.735527      1.208645
O       9.40177     13.21791      0.42523        -0.115008     -0.206656     -0.256790
O       9.59561     13.32506     13.18666        -0.452650      0.033350      0.794316
O       9.39989      1.80016      4.62707         0.160331      0.050469      1.959518
O       9.40583     13.27354      4.74905        -0.122357     -0.029043      0.394499
O       9.31692      1.99174      8.91727         0.725806      0.057171     -0.312199
O       9.54794     13.21020      8.87843        -0.016925     -0.052428     -0.532112
O       9.36952      5.59842      0.40060         0.386838     -0.015413     -1.733230
O       9.54556      5.79231     13.10584         0.075008     -0.313786      1.131180
O       9.39832      5.61908      4.81084         0.546191      0.371142      0.489768
O       9.60027      5.56727      9.00190        -0.098674      0.086350     -0.091941
O       9.49909      9.43024      0.52857        -0.418002     -0.194311      1.016797
O       9.47370      9.55777     13.08092         0.171480     -0.436015      0.003460
O       9.52240      9.36731      4.71839        -0.330498      0.158159      0.885706
O       9.66240      9.75958      8.90670        -0.704114     -1.110365      1.520721
O       3.91781      1.78230      2.33963        -1.994726     -0.011335      1.271527
O       3.74267      1.71810     15.20931        -1.172662      0.552125      0.526861
O       3.90745     13.19035      2.35571        -0.623357      0.327048      0.618984
O       3.70079     13.19397     15.37158         1.084907      0.106239     -0.517557
O       0.00239      1.72880      2.60668        -0.492319     -0.153953      0.510261
O      15.11518      1.73516     15.49810        -0.394485      0.633667     -0.567127
O       0.00780     13.26660      2.53832         0.520763     -0.449290      0.222785
O      15.12341     13.07649     15.38492        -0.288453      0.174441     -0.327239
O       3.77624      1.89815      6.84519        -0.139136     -0.457724      0.026425
O       3.80754     13.32875      6.81659         0.653233     -0.041605      0.491128
O       0.04965      1.90351      6.66520        -0.047259     -0.191526      0.054563
O       0.04927     13.25631      6.63633        -0.244652     -0.018479      0.010440
O       3.73521      1.77593     11.08750        -0.427707      0.447509      0.058516
O       3.75501     13.48588     11.07026        -0.033752     -0.673990     -0.247530
O      15.14502      1.86484     11.16425         0.373876      0.428531     -0.534399
O      15.12213     13.29092     11.18282         1.396836     -0.218357     -0.178822
O       3.84374      5.58546      2.52251        -0.812344      0.469427     -0.004031
O       3.75496      5.50208     15.18169         0.164806      0.390196     -0.287699
O       0.04152      5.50157      2.70731        -0.681860      0.317120     -0.652635
O      15.12575      5.51492     15.33305        -0.554318      0.432720     -0.026804
O       3.84635      5.80877      6.81663        -0.376379     -0.435814      0.275825
O       0.08027      5.60779      6.69537        -0.212022      0.671031      0.182478
O       3.74637      5.67976     11.18341         0.424972      0.688739      0.250677
O      15.15537      5.80220     11.09862         0.866972     -0.328708      0.210253
O       3.75991      9.35980      2.65227         1.095588     -0.230257     -0.482328
O       3.74876      9.29680     15.33128        -0.285413      0.424728     -0.893849
O       0.12765      9.43818      2.70859        -1.658150      0.176104     -0.320280
O      15.13887      9.46478     15.50157        -0.095495      0.041341     -0.271176
O       3.86444      9.50795      6.78757        -0.823633     -0.193019      0.329458
O       0.05058      9.48786      6.65274         0.263123      0.294156      0.403136
O       3.79768      9.46210     11.24830        -0.462909      0.207516     -0.077504
O       0.02869      9.62170     11.16859        -0.772898     -0.393445     -0.344917
O       7.57555      1.78223      2.52509         0.848466      0.120384      0.528584
O       7.56299      1.80738     15.32458         0.639294      0.189573     -0.334214
O       7.61535     13.25555      2.66126         0.503843     -0.422915      0.051499
O       7.49918     13.19624     15.27939         0.605137      0.054750     -0.267853
O       7.54250      2.04011      6.93805         1.074275     -0.554023     -0.161318
O       7.60864     13.32311      7.05686         0.354376     -0.095375     -0.718050
O       7.52510      2.10229     10.87314         0.345884     -0.585407      0.601486
O       7.58138     13.25693     10.98978        -0.060379     -0.184724      0.376205
O       7.65856      5.58021      2.53669        -2.041082      0.186039      0.042604
O       7.66982      5.56520     15.26471        -1.465698      0.177952      0.128979
O       7.62965      5.70004      6.95487        -0.429074     -0.329069      0.131067
O       7.64405      5.61349     11.14417         0.063290      0.653629     -0.349486
O       7.50807      9.35724      2.57437         0.643746      0.093654     -0.430166
O       7.53009      9.41187     15.26464         0.308976     -0.032885      0.241308
O       7.53611      9.41141      6.93864         1.778455      0.513043      0.250973
O       7.59289      9.63006     11.07931         1.169256     -0.346479     -0.357610
O      11.30007      1.80226      2.75236         1.616331      0.061906     -0.455731
O      11.38378      1.84974     15.43674         0.051399     -0.200443     -0.503275
O      11.37368     13.20302      2.57719        -0.249076     -0.401794      0.005831
O      11.30108     13.20030     15.42091         0.380211      0.387633     -0.016732
O      11.38780      1.91549      7.04964         0.306924     -0.058558     -0.550388
O      11.43206     13.21638      6.66557        -1.111715      0.413439      0.645284
O      11.36962      1.89698     10.91848         0.747696     -0.175523     -0.009178
O      11.40585     13.50228     10.96199         0.218601     -0.917458      0.262571
O      11.35219      5.59954      2.56780         1.039553      0.169000      0.126748
O      11.34688      5.67292     15.43697         0.920880     -0.118450     -0.087965
O      11.45923      5.74086      6.88163        -0.447172      0.187636      0.197558
O      11.48157      5.74885     11.16653        -0.960169     -0.412583     -0.273851
O      11.41175      9.38015      2.75662        -0.574788     -0.107852     -0.762158
O      11.31768      9.33686     15.42597         0.396646      0.552517     -0.591979
O      11.40711      9.44763      6.95037        -0.561969     -0.246652     -0.584716
O      11.47592      9.44953     11.09392        -0.788119      0.473532      0.030065
O       1.91420      3.68876      2.51754         0.223636     -0.517306      0.241095
O       1.69527      3.65890     15.39875         0.918736      0.263167      0.005664
O       1.93203     15.07920      2.60968         0.290048     -0.357018      0.076763
O       1.75832     15.09348     15.39750         0.162652      0.537338     -0.434647
O      13.32348      3.66540      2.57559        -0.048163      0.764487      0.188192
O      13.32571      3.73842     15.29254        -0.696073     -0.010720      0.233600
O      13.25053     15.09278      2.63699         0.085311      0.384686      0.140181
O      13.37085     15.16365     15.34028        -0.933911     -0.115342      0.026061
O       1.91325      3.80838      6.79561         0.557570     -0.356153      0.128004
O       1.91078     15.12128      6.78019         0.101882      1.142481     -0.280058
O      13.32414      3.84001      6.99674        -0.126290     -0.564641     -0.201634
O      13.27026     15.19899      6.70998         0.132236     -0.438027      0.205253
O       1.90387      3.78131     10.91082        -0.110080     -0.021977      0.321329
O       1.79986      0.03983     11.24700        -0.104942     -0.830241     -0.810887
O      13.39905      3.84712     10.89948        -0.576016     -0.751241      0.054792
O      13.36279      0.01625     11.01660        -0.275525      0.180188      0.227521
O       1.85003      7.48837      2.60706         0.310046      0.120849     -0.330485
O       1.64360      7.43217     15.20289         0.930648      0.906056      0.269150
O      13.41252      7.47158      2.68550        -0.019103      0.445304     -0.593919
O      13.34193      7.52428     15.36305        -0.451725      0.103201      0.022891
O       1.89200      7.61616      6.88725         0.445271     -0.492003     -0.778885
O      13.39133      7.57726      6.75752        -0.060456     -0.179607      0.366402
O       1.81437      7.59684     11.26482         0.624388      0.741755     -0.311111
O      13.27700      7.65458     11.15775         0.379546      0.860623      0.099955
O       2.08131     11.29381      2.42412        -0.709346      0.499597      0.285694
O       1.87311     11.32027     15.33851         0.189245     -0.434626      0.055232
O      13.24562     11.32120      2.71640         0.555245     -0.120729     -0.359245
O      13.16056     11.33861     15.46327         0.149659     -0.047841     -0.275905
O       1.98305     11.38284      6.88110         0.194135      0.011721     -0.323527
O      13.27299     11.33319      6.66756         0.307433      0.705825      0.433603
O       1.91385     11.38387     11.18592         0.253244      1.804488     -0.498742
O      13.22193     11.46244     11.04974         0.059531     -0.328273     -0.163740
O       5.68992      3.79647      2.49621         0.400541     -0.925877      0.191141
O       5.68345      3.68997     15.28324        -0.029658      0.279204     -0.089202
O       5.78795     15.13248      2.72954        -0.158201     -1.045759     -0.740101
O       5.60038     15.04814     15.35771         0.423651      0.321324     -0.191230
O       5.66761      3.75786      6.99441        -0.288153      1.254783     -0.321990
O       5.79699     15.16506      6.84962        -0.479774      0.370585      0.013671
O       5.62671      3.85019     11.16189        -0.174088     -1.161856     -0.197997
O       5.75367      0.04573     11.19597         0.078027     -1.128590     -0.521726
O       5.68103      7.45934      2.61303         0.026500      0.532009     -0.600344
O       5.70574      7.55220     15.08267        -0.141972     -1.298535      0.086004
O       5.75514      7.59656      7.03706        -0.516051     -1.062194     -0.383145
O       5.70986      7.69974     11.27334        -0.259853     -1.090438     -0.411917
O       5.79483     11.21216      2.48399        -0.260309      0.874834      0.305459
O       5.58886     11.26781     15.18116        -0.016846      1.314667      0.916141
O       5.70271     11.36610      6.95382         0.064271      0.352670     -0.139031
O       5.57301     11.42985     10.94272        -0.253169      1.570084      0.430402
O       9.50007      3.71969      2.60864        -0.144082     -0.310657      0.159375
O       9.56967      3.76180     15.04278        -0.096368     -0.656609      0.695573
O       9.58879     15.07912      2.50761        -0.679704     -0.081192      0.376501
O       9.44761      0.00091     15.28658         0.140963     -0.653477      0.417397
O       9.66703      3.75576      6.69106        -0.188991      0.416225      0.522272
O       9.55877      0.06284      6.99121        -0.400597     -1.520908     -0.450703
O       9.53985      3.78823     11.22327         0.095001     -0.297425     -0.425435
O       9.41184     15.12641     10.93455        -0.376910      1.310961      0.069046
O       9.40994      7.46246      2.53772         0.636270      1.164899      0.116516
O       9.50973      7.57013     15.30808        -0.537877      0.330919      0.333432
O       9.44936      7.59677      7.02966         0.494953      0.028220     -0.078297
O       9.60733      7.56636     10.94261        -0.642617      1.389672      0.105433
O       9.43627     11.27709      2.67440         0.017786      0.902975     -0.005597
O       9.41566     11.32211     15.31875         0.082625      0.339119     -0.051254
O       9.37040     11.34757      6.85663         0.487369      0.639370     -0.524023
O       9.56250     11.42796     11.15929         0.008212     -0.337648     -0.533796
