  # total energy = -7878.19525617 
CRSYTAL
PRIMVEC
    15.2000000000000000    0.0000000000000000    0.0000000000000000
     0.0000000000000000   15.2000000000000000    0.0000000000000000
     0.0000000000000000    0.0000000000000000    17.000000000000000
PRESSURE
8.70402 8.49295 3.51575 0.244751 -0.234406 -0.002855
PRIMCOORD
320 1
Pb       3.63485      3.83462      4.31310         0.702752     -0.015795     -0.161197
Pb       3.92455      3.88275     16.99148        -0.443697     -0.164213     -0.159381
Pb       3.65440      0.16993      4.27924         0.595533     -0.156460      0.161668
Pb       3.83651     15.17237     16.91178        -0.264200     -0.010386      0.568436
Pb       0.07502      3.85084      4.21009        -0.379992      0.195882      0.012390
Pb       0.16582      3.94280     16.94722        -0.514029     -0.597144     -0.150800
Pb      15.14978      0.17855      4.47558        -0.007186     -0.392135     -0.507856
Pb       0.05521     15.11183     16.96572        -0.209212     -0.038233     -0.070450
Pb       3.90879      3.86958      8.34260         0.089708     -0.118887      0.742653
Pb       3.82403     15.05605      8.68572         0.194981      0.103709     -0.595046
Pb       0.13967      3.61425      8.64017        -0.563139      0.524950     -0.558386
Pb      14.95045     15.16056      8.47137         0.336203     -0.017541      0.067404
Pb       3.85589      3.59023     12.55218        -0.509118      1.254877      0.489985
Pb       3.81795      0.08869     12.85599        -0.186808     -0.653625     -0.950373
Pb      15.13864      3.84947     12.67747         0.029186     -0.011476      0.115806
Pb       0.06477      0.00421     12.85108        -0.297436      0.107796     -0.403552
Pb       3.71708      7.63086      4.33232         0.169827     -0.158609      0.034780
Pb       3.71825      7.63494     16.95840         0.022766     -0.179208     -0.084055
Pb      15.09628      7.76677      4.35411        -0.058133     -0.609316     -0.499122
Pb      15.05312      7.45993     16.90110         0.897937      0.489302     -0.023241
Pb       3.84690      7.58141      8.34846        -0.059542     -0.100175      0.313225
Pb      15.05744      7.53157      8.49372         0.383252     -0.253112     -0.366407
Pb       3.65856      7.48696     12.68995         0.532858      0.198326     -0.067989
Pb       0.03163      7.49218     12.81984        -0.402927     -0.215066     -0.451265
Pb       3.56907     11.42489      4.33113         0.432259      0.038005      0.017718
Pb       4.02770     11.41427      0.17655        -0.746177     -0.162682     -0.235815
Pb       0.01968     11.43746      4.19552        -0.794120      0.307607      0.175136
Pb       0.11163     11.32228     16.83556        -0.829939      0.279321      0.910022
Pb       3.65600     11.37276      8.57501         0.592869      0.177932     -0.820489
Pb      15.15592     11.34289      8.62364        -0.349818      0.716430     -0.840949
Pb       3.73305     11.25890     12.65481         0.128935      0.401797      0.450713
Pb      15.12160     11.04420     12.97341        -0.072179      1.140518     -0.367345
Pb       7.55265      3.83327      4.27957         0.034743     -0.141535     -0.279161
Pb       7.61703      3.78898      0.11938        -0.223566     -0.021389     -0.332122
Pb       7.56394     15.09216      4.23176        -0.023868      0.316915     -0.210822
Pb       7.69163     15.10025     16.95753        -0.400292      0.193984      0.572566
Pb       7.67969      3.57077      8.45863        -0.066804      1.386843     -0.421784
Pb       7.64670      0.06620      8.55442        -0.336440     -0.974695     -0.539984
Pb       7.70790      3.70674     12.76773        -0.392767      0.859713     -0.092565
Pb       7.58230     15.11553     12.83277        -0.084537     -0.083386     -0.670596
Pb       7.69099      7.45274      4.07889        -0.163043      0.847790      0.508184
Pb       7.69011      7.70185      0.11137        -0.412615     -0.168950     -0.158829
Pb       7.55920      7.62584      8.30683        -0.195072     -0.316736      0.521975
Pb       7.51150      7.66761     12.63394        -0.109906     -0.649758      0.353353
Pb       7.48591     11.36024      4.31167         0.074222      0.061199     -0.729448
Pb       7.52033     11.45800     16.97809         0.232872     -0.147376      0.310153
Pb       7.63123     11.46151      8.64968        -0.481465      0.307530     -0.738145
Pb       7.66490     11.37969     12.69902        -0.660689     -0.342042      0.261295
Pb      11.33881      4.02295      4.09373         0.488195     -1.046638      0.422362
Pb      11.29583      3.62141     16.94480         0.684954      0.836942      0.268305
Pb      11.48616     15.16173      4.16226        -0.267917     -0.284488     -0.037792
Pb      11.40399      0.01942     16.98643         0.438479     -0.625146     -0.376053
Pb      11.45150      3.78291      8.47328        -0.428139      0.416065     -0.221408
Pb      11.35348      0.02817      8.48022         0.035130     -0.447544     -0.256422
Pb      11.27963      3.59501     12.74873         0.351233      1.110793      0.190531
Pb      11.39110      0.02604     12.63366         0.136736     -0.542758      0.205262
Pb      11.46026      7.46326      4.11842        -0.006597      0.811423      0.147019
Pb      11.41144      7.60448     16.93887        -0.036595     -0.327554      0.117886
Pb      11.32544      7.52726      8.68490        -0.127504      0.005467     -0.821815
Pb      11.39949      7.67523     12.93596        -0.203541     -0.749116     -1.006422
Pb      11.36055     11.30996      4.20109         0.466589      0.349865     -0.129373
Pb      11.46950     11.41850     16.73893        -0.105443      0.115290      0.661646
Pb      11.35987     11.36283      8.51312         0.056784      0.430690      0.064567
Pb      11.26216     11.15470     12.49767         0.512421      1.297611      0.835379
Ti       1.90682      1.94009      2.19539        -0.386317      0.541496     -0.744987
Ti       1.96913      1.84192     15.01875        -0.736989      0.673048      0.409173
Ti       1.78612     13.40975      2.37516        -0.596637     -0.247034     -0.147221
Ti       1.91228     13.25661     14.92037        -1.025449     -0.139170      1.423176
Ti      13.34814      1.87846      2.20147        -0.328407      0.302447      0.132142
Ti      13.36097      1.88625     15.02838        -0.077286     -0.082179     -0.381957
Ti      13.19841     13.26124      2.13474         0.654562     -0.550916      0.360234
Ti      13.23385     13.27923     14.78803        -0.001192      0.142436      0.973657
Ti       1.92858      1.87591      6.64813        -0.581337     -0.403857     -0.092989
Ti       1.76509     13.32860      6.55847         0.123491     -0.024544     -0.554042
Ti      13.27191      2.01574      6.39912         0.259077     -0.271237     -0.118350
Ti      13.16613     13.29638      6.48414         0.217238     -0.014993      0.439288
Ti       1.85405      1.84629     10.76498        -0.269387     -0.375914     -0.465826
Ti       1.75578     13.26217     10.72030         0.183251      1.133082      0.045274
Ti      13.28744      1.97832     10.82494         0.507460     -0.668808      0.585767
Ti      13.24140     13.36998     10.77994        -0.396666     -1.055867      0.000310
Ti       1.98799      5.80014      2.20114        -1.843917     -0.836511      0.589592
Ti       1.93272      5.67266     14.82451        -0.113445     -0.397287      0.766034
Ti      13.42401      5.65445      2.15820        -0.005592      0.309316     -0.697762
Ti      13.23635      5.60883     14.92260         0.576198     -0.289933      0.852613
Ti       1.86584      5.67220      6.53109        -0.250916      0.428011     -0.244712
Ti      13.27200      5.73650      6.53214        -0.532311     -0.322291      0.066091
Ti       1.86442      5.70955     10.67162        -0.678090     -0.346084     -0.042381
Ti      13.22652      5.75299     10.72055        -0.519740     -0.051192      0.489362
Ti       1.92505      9.48952      2.29694        -0.570596      0.548001     -1.500581
Ti       1.93857      9.55430     15.01048        -0.053272     -1.870776     -0.106136
Ti      13.36552      9.48176      2.13944        -0.279187      0.626532     -0.399796
Ti      13.24596      9.40682     14.92882         0.452744      1.492792      0.037369
Ti       1.80650      9.48011      6.52449         0.953134      0.174020      0.140895
Ti      13.16847      9.52074      6.57236        -0.348891      0.148709     -0.667196
Ti       1.78714      9.51886     10.68669         0.946045     -0.698769     -0.385645
Ti      13.27087      9.48630     10.68894        -0.978291     -0.325854      0.685300
Ti       5.73505      1.93564      2.28786        -0.422371      0.166294      1.076185
Ti       5.73425      1.93873     14.92125         0.059189     -0.439056      0.270344
Ti       5.56370     13.33148      2.35291         1.421340     -0.314865     -0.006229
Ti       5.59996     13.27860     14.95287         0.522353     -1.112200     -0.389037
Ti       5.73355      1.79843      6.55552        -0.492325     -0.177950     -0.847901
Ti       5.62435     13.25088      6.46350         0.106569      0.142642      1.347774
Ti       5.76410      1.82991     10.78166        -0.995794      0.567946     -0.615428
Ti       5.59138     13.23389     10.85280         0.456485      0.565393     -0.419133
Ti       5.67116      5.71655      2.25852         0.239164     -0.476807     -0.475372
Ti       5.73714      5.65639     14.90210        -0.718883      0.504410     -0.310151
Ti       5.76081      5.66739      6.42986        -0.772180      0.261402     -0.772500
Ti       5.62014      5.66479     10.74874         0.784123      0.306800     -1.336272
Ti       5.70729      9.47118      2.28681         0.399016      0.312972     -0.054202
Ti       5.67859      9.39888     15.05105        -0.184980      0.872641     -0.445881
Ti       5.66186      9.49975      6.37357        -0.788999      0.173403      0.103675
Ti       5.52759      9.46191     10.73755         1.030104     -0.441337     -0.941304
Ti       9.54036      1.87233      2.27881        -1.080042     -0.214276      0.129064
Ti       9.48061      1.84098     15.01857         0.426467      0.891801     -0.081492
Ti       9.40892     13.22863      2.18508         0.139324      0.654657      0.307106
Ti       9.43597     13.28667     14.92340         1.285210     -0.949838      0.094455
Ti       9.57150      1.91798      6.34285        -0.360589      0.497860      0.740069
Ti       9.41008     13.33615      6.43837         0.705298      0.460095      0.261068
Ti       9.46507      1.91091     10.72203         0.515300     -0.367034     -0.077025
Ti       9.40352     13.28702     10.80764         0.744864      0.276582     -0.541482
Ti       9.55110      5.68524      2.09474        -0.000135     -0.166384      1.215688
Ti       9.46485      5.70127     14.97758         0.079484      0.035416     -0.579350
Ti       9.50327      5.81046      6.47058         0.045850     -1.324691      0.346362
Ti       9.38208      5.71244     10.63018         0.551581     -1.014290      0.111711
Ti       9.60484      9.50985      2.14446        -1.058183      0.299512     -0.099787
Ti       9.45651      9.44763     15.00019         0.311625      0.573421     -0.400685
Ti       9.36795      9.67060      6.43581         1.204667     -1.908733      0.370037
Ti       9.35412      9.36445     10.66649         0.549215      0.540229      0.466467
O       1.86476      1.77527      0.40703         0.176373      0.209294      0.013885
O       1.94748      1.72739     13.23631         0.259003      0.337469     -0.623670
O       1.85010     13.44867      0.61948         0.032989     -0.076803     -0.823256
O       1.81048     13.25498     13.22437         0.368722      0.030216     -2.064672
O      13.34602      1.89253      0.42198        -0.065509     -0.221327     -0.325776
O      13.14107      1.99024     13.23356         0.343957     -0.241187     -0.394042
O      13.17125     13.24572      0.36963         0.240784      0.248790     -0.386321
O      13.16810     13.27003     13.03706         0.273529      0.081736     -0.567229
O       1.85064      1.99704      4.85715         0.305446     -0.478359     -0.754215
O       1.77695     13.31473      4.73018         0.125657      0.294818      0.043285
O      13.25499      1.96555      4.61941        -0.016778     -0.056610     -0.143542
O      13.15289     13.18813      4.75229        -0.088724      0.185338     -1.350304
O       1.75657      1.82861      8.96438        -0.060571      0.124287     -0.252042
O       1.81453     13.26104      8.92941         0.206567     -0.020277     -0.568055
O      13.40380      1.88708      9.10032        -0.283430      0.201348     -1.758600
O      13.14134     13.46151      9.00363         0.044268     -0.341197     -1.215859
O       1.85281      5.72462      0.44492         0.055150      0.042150     -1.051466
O       1.89707      5.68141     13.04480        -0.318636     -0.068080     -0.182948
O      13.46156      5.67946      0.33776        -0.072556      0.204458      0.303251
O      13.32282      5.68570     13.16978        -0.301797     -0.073496     -0.951247
O       1.98314      5.70693      4.73744        -0.192053      0.141563     -0.674400
O      13.22389      5.68457      4.75960        -0.288490      0.436821     -1.007622
O       1.88880      5.70071      8.90452        -0.275170     -0.145596     -0.681168
O      13.25830      5.78158      8.95198         0.134065      0.332233     -1.217177
O       1.84182      9.44653      0.47591         0.259733      0.270421     -0.106078
O       1.88151      9.45070     13.19824        -0.105418      0.611060     -0.417177
O      13.33845      9.55216      0.33806        -0.033705     -0.505613     -0.220722
O      13.31226      9.47871     13.11083        -0.099916     -0.057808     -0.358632
O       1.87852      9.50440      4.71453        -0.354464     -0.179465     -0.486046
O      13.20006      9.47884      4.76601         0.285806      0.051897     -0.203017
O       1.90471      9.58408      8.89088        -0.208963      0.054443      0.053565
O      13.09553      9.41004      8.93191         0.723566     -0.068757     -0.841905
O       5.77158      2.08082      0.54830        -0.113081     -0.258806     -1.282048
O       5.69120      1.94387     13.11870        -0.101261     -0.183957     -0.016643
O       5.65270     13.25220      0.54968        -0.073032      0.178967     -0.659070
O       5.67955     13.17455     13.17202        -0.306313      0.222102      0.246768
O       5.61522      1.82490      4.78698         0.047132     -0.092760     -0.303714
O       5.68704     13.36455      4.72588        -0.035508     -0.320699     -1.464293
O       5.74374      1.84230      8.99791         0.208328     -0.057238     -0.603457
O       5.68659     13.35927      9.06742         0.100711     -0.383411     -0.333873
O       5.63415      5.50993      0.44455         0.439706      0.452495     -0.083773
O       5.64866      5.62344     13.11656         0.065194      0.184493     -0.046611
O       5.68951      5.74329      4.62188        -0.112885      0.088312      0.137870
O       5.61078      5.72803      8.91281        -0.080247     -0.064089      0.097347
O       5.65058      9.54708      0.45987        -0.095747     -0.436609     -0.446493
O       5.62841      9.47069     13.28038         0.018002      0.124985     -0.481994
O       5.77562      9.56952      4.60807        -0.171753     -0.433798     -0.807711
O       5.43527      9.41441      8.96735         0.605896      0.432538     -0.461115
O       9.39634      1.97105      0.46393         0.096028     -0.163664     -0.845977
O       9.49639      1.90697     13.22427         0.025619     -0.309572     -0.276556
O       9.37105     13.27723      0.40481         0.161156     -0.027432     -0.821687
O       9.46280     13.25863     13.14784        -0.328815      0.396453     -0.559960
O       9.64186      1.93665      4.59156        -0.260694     -0.273458     -0.573395
O       9.54407     13.29172      4.68859        -0.395172      0.116160     -0.980522
O       9.50265      2.09584      8.95486        -0.197544     -0.881596     -0.096418
O       9.32624     13.30002      9.02544        -0.172904     -0.152501     -0.394238
O       9.54587      5.61682      0.37306        -0.508785      0.187514     -1.340144
O       9.47660      5.81442     13.20288        -0.033431     -0.162838     -0.294563
O       9.61698      5.67653      4.67717        -0.080075      0.424880     -0.965257
O       9.30639      5.72422      8.85405         0.181940     -0.232334     -0.311468
O       9.60877      9.52075      0.35478        -0.271527     -0.310056     -0.559404
O       9.44956      9.24766     13.20535        -0.086956      0.399969     -0.548737
O       9.41766      9.51357      4.67516         0.082481      0.324220     -0.558857
O       9.34386      9.43620      8.91897        -0.029725      0.299272     -0.751085
O       3.77232      1.97631      2.63142        -0.077724     -0.373573      0.005738
O       3.89991      1.87962     15.34485        -0.379763     -0.312910     -0.000958
O       3.76085     13.27742      2.63756        -0.821371      0.360329      0.351224
O       3.73184     13.28393     15.42300         1.102646     -0.227361     -0.156987
O      15.14754      2.00247      2.59882         0.821553     -0.402250      0.215478
O       0.06416      1.76940     15.20508        -0.457721      0.141288      0.233415
O      15.07574     13.27860      2.58624         0.689367      0.119806      0.210606
O      15.17015     13.31800     15.21926        -0.210592     -0.217078      0.284109
O       3.79599      1.71644      6.93599        -0.438880      0.317007      0.045245
O       3.76767     13.43225      6.86803        -0.757593     -0.046636      0.087305
O      15.13586      1.98882      6.78092        -0.106304      0.243156      0.460286
O      15.01049     13.22210      6.79715         1.584334     -0.270702      0.690458
O       3.72629      1.73509     10.97193         0.486324      0.378992      0.747084
O       3.76657     13.37109     11.03463        -1.052744     -0.014918      0.489382
O      15.14157      1.92030     11.24648         0.230724     -0.023210      0.193697
O      15.10218     13.28178     10.86496         0.303076     -0.500324      0.758613
O       3.77398      5.69822      2.43643         0.730080      0.118210      0.687449
O       3.78554      5.57610     15.21606         0.126962      0.400105      0.370466
O       0.03033      5.81156      2.58591         0.560515     -0.287868      0.310479
O      15.18516      5.65276     15.23360         0.816943     -0.079747      0.105201
O       3.76228      5.69269      6.75068         0.656974      0.154379      0.382119
O      15.11163      5.72852      6.70797         0.915389     -0.099331      0.729548
O       3.67729      5.67454     11.04070         1.046355     -0.116951      0.350617
O      15.12438      5.79410     11.00285         0.741755     -0.498754      0.496848
O       3.75547      9.56226      2.61638         0.564080     -0.176643      0.296878
O       3.78940      9.56875     15.36786        -0.448707     -0.374378      0.233671
O       0.03624      9.52758      2.55980        -0.764209     -0.057559      0.563774
O      15.17422      9.53606     15.23049         0.445231      0.209001      0.006793
O       3.75486      9.41983      6.62919        -0.298074     -0.082510      0.560766
O       0.00630      9.60391      6.88452        -1.237255     -0.180724      0.196312
O       3.70510      9.47514     11.04473        -0.978562      0.408219      0.703859
O      15.16051      9.60099     11.02113        -0.321459     -0.194608      0.077254
O       7.56401      1.92713      2.61639         0.294539      0.271433      0.459053
O       7.62350      1.83484     15.29278        -0.549772      0.139616      0.151512
O       7.50325     13.31823      2.52670         0.558489     -0.249080      0.742706
O       7.57726     13.24152     15.30004        -0.306832      0.187464      0.079356
O       7.62882      1.91694      6.69371         0.023335      0.082785      0.587793
O       7.57642     13.28272      6.77242        -0.922074     -0.420376      0.441087
O       7.60121      1.92360     11.09238        -0.085360      0.040000      0.204358
O       7.48716     13.31230     11.16021         0.993192     -0.523890      0.491597
O       7.64554      5.69379      2.56700        -0.051789     -0.100870     -0.406353
O       7.55895      5.75662     15.28342         0.361156      0.085585      0.304444
O       7.59359      5.64847      6.61207        -0.363850     -0.141662      0.564021
O       7.51167      5.64535     10.94728        -0.408471     -0.259669      0.820224
O       7.60322      9.34867      2.39271         0.783058      0.297218      0.335087
O       7.62450      9.44243     15.32001        -0.772691     -0.135876      0.474606
O       7.50503      9.62367      6.73166         0.705168     -0.084549      0.746854
O       7.49425      9.50290     11.06490        -0.064671     -0.005753      0.152915
O      11.36037      1.97079      2.41764         1.081158     -0.330957      0.259788
O      11.41325      1.93581     15.36734        -0.863581     -0.365693      0.145339
O      11.32494     13.27493      2.52782         0.057365      0.236929      0.210495
O      11.35192     13.27270     15.30688         0.167876      0.481781     -0.071744
O      11.39025      1.84571      6.84383         0.339620      0.134391      0.280677
O      11.33298     13.33596      6.80604        -0.755541      0.401392      0.916923
O      11.39172      1.88288     11.05300        -1.014531     -0.025840      0.301915
O      11.29756     13.30102     10.95489        -0.612490      0.231950      0.812629
O      11.47054      5.71416      2.34414        -0.377669      0.051225      0.763521
O      11.44099      5.65146     15.36225        -0.644807      0.455534     -0.057280
O      11.31117      5.74545      6.92264         1.037605      0.276534      0.292466
O      11.28548      5.74479     10.84986        -0.066616      0.141331      0.419094
O      11.43994      9.46060      2.50539        -0.062985      0.011006      0.253830
O      11.38885      9.32497     15.16633         0.256909      0.381840      0.400368
O      11.27187      9.48822      6.83560        -0.021700      0.006989      0.186142
O      11.31550      9.38781     11.02494        -0.720230     -0.660260      0.137497
O       1.85566      3.81942      2.58956         0.086606      0.464462      0.054222
O       1.98014      3.73591     15.31201        -0.633905      0.167684     -0.097896
O       1.76165      0.15392      2.67187         0.363272     -1.294261      0.578622
O       1.92091     15.11276     15.32163         0.387278      0.648439      0.283990
O      13.39084      3.85509      2.56578        -0.461286     -0.583360     -0.056350
O      13.35894      3.77537     15.31367        -0.025505     -0.421298      0.163555
O      13.31280     15.14584      2.57915        -0.469293      1.105836      0.016529
O      13.16648     15.18269     15.22520         0.308314     -0.145451      0.226766
O       1.88336      3.79693      6.83279         0.128330     -0.360799      0.721326
O       1.57611     15.18183      6.83568         0.742506      0.466575     -0.033050
O      13.21188      3.87117      6.88294        -0.194469     -0.898295      0.142881
O      13.32282      0.07782      6.68889        -0.362492     -0.316821      0.433408
O       1.75511      3.75577     10.97725         0.308956      0.063325      0.314804
O       1.71699     15.16024     11.13873         0.373828      0.049852      0.199879
O      13.21104      3.88327     11.01124         0.268264     -0.885544      0.630521
O      13.28668      0.00584     11.04084        -0.345248      0.690311      0.919486
O       1.96626      7.63448      2.53471        -0.054503      0.061006      0.707335
O       1.81568      7.53186     15.12613         0.673874      0.583899      0.663234
O      13.39400      7.59570      2.53153        -0.524178      0.370837      0.259783
O      13.36551      7.60569     15.11430        -0.061165     -1.312856      0.736711
O       1.81944      7.54878      6.82756        -0.171494      1.161436      0.118463
O      13.31389      7.65994      6.78875        -0.067743     -0.522380      0.604375
O       1.86219      7.61334     10.97822        -0.244918      0.561060      0.401635
O      13.27369      7.60233     11.13076        -0.020355      0.585923      0.084417
O       1.82638     11.51215      2.69718         0.368428     -1.141157     -0.154877
O       1.91871     11.35368     15.35467        -0.240116      0.988808     -0.118426
O      13.24033     11.36284      2.49152         0.071196     -0.232340      0.414010
O      13.26792     11.37118     15.08518        -0.054286      0.131971      0.514343
O       1.92449     11.47698      6.77096         0.092874     -1.351515      0.543001
O      13.11820     11.38660      6.94621         0.341097      0.045799      0.319816
O       1.85358     11.44910     11.02536         0.409253     -1.463776      0.444018
O      13.04130     11.33569     10.90347         0.689993      0.274065      0.312001
O       5.62965      3.90484      2.74062         0.463992     -1.651693     -0.059958
O       5.76084      3.77180     15.22193         0.018567     -0.098152      0.466604
O       5.68751      0.02056      2.68526        -0.453216      0.170326     -0.341402
O       5.66158     15.12736     15.20430         0.253987      0.886536      0.323887
O       5.61637      3.79555      6.72832         0.080410     -0.681676      0.463510
O       5.75246     15.13353      6.95257         0.200987      0.495427      0.103906
O       5.57481      3.78038     10.96791        -0.019622     -0.630113      0.462424
O       5.72202      0.02636     11.18511        -0.048234     -0.734798      0.383237
O       5.73853      7.56168      2.47608        -0.612193      0.329006      0.462091
O       5.49181      7.57969     15.34868         0.774924     -0.635776      0.117765
O       5.72334      7.60423      6.68499        -0.181499     -0.237650      0.478994
O       5.57590      7.59330     11.04959         0.099326     -0.429192      0.531258
O       5.72574     11.29307      2.56946        -0.084640      1.952402      0.324726
O       5.68830     11.39735     15.45049        -0.051289     -0.039911     -0.108134
O       5.54900     11.34548      6.79079         0.110764      1.077890      0.342465
O       5.60745     11.33349     11.10183         0.059936      0.557800      0.124962
O       9.45956      3.81637      2.54918         0.067241      0.203359     -0.025352
O       9.55029      3.83737     15.18968        -0.496264     -1.175517      0.505991
O       9.39418     15.15714      2.42472         0.348592      0.776190      0.565542
O       9.50250     15.16732     15.34001        -0.005451      0.245427      0.074944
O       9.54098      3.79105      6.80188        -0.150739     -0.370408      0.012113
O       9.41145      0.00387      6.88100         0.315417      0.757182      0.005637
O       9.41397      3.74407     11.16522         0.363009      0.749026     -0.087026
O       9.37981      0.00210     11.07895         0.146184      0.336160      0.177073
O       9.56643      7.60756      2.37511        -0.149726     -0.705887      0.395963
O       9.58303      7.55083     15.37998        -0.348092      0.430507      0.662895
O       9.37444      7.59826      6.77876        -0.171834      1.414609      0.091338
O       9.26245      7.52555     10.94226         0.319781      0.819037      0.342640
O       9.44391     11.40185      2.46610        -0.049690     -1.201270      0.591067
O       9.63988     11.36971     15.12503        -0.826853     -0.457047      0.365977
O       9.46691     11.48772      6.82983        -0.065305     -0.932456      0.458995
O       9.41105     11.30981     11.02579        -0.279273      0.324953      0.155963
