  # total energy = -7865.47672472 
CRSYTAL
PRIMVEC
    15.010000000000000    0.0000000000000000    0.0000000000000000
     0.0000000000000000   15.010000000000000    0.0000000000000000
     0.0000000000000000    0.0000000000000000    16.400000000000000
PRESSURE
16.7618 16.7569 7.19583 -0.04119 0.071072 -0.215716
PRIMCOORD
320 1
Pb       3.84838      3.68652      4.25432        -0.687029      0.490584     -0.714663
Pb       3.65569      3.76000     16.37129        -0.002400     -0.117447      0.499478
Pb       3.70779     14.99883      4.16482         0.649649     -0.214979     -0.129411
Pb       3.84394     14.93909      0.03732        -0.660678     -0.117108      0.305202
Pb      14.91653      3.79828      4.15464         0.234912      0.095110     -0.128227
Pb      14.89607      3.61215      0.01859         0.737702      0.336456      0.611884
Pb      14.91547      0.03427      4.29462        -0.078566     -0.034186     -0.609494
Pb       0.00256     14.91214      0.15155         0.301721      0.149828     -0.338047
Pb       3.48437      3.76286      8.27418         0.337694      0.002418     -0.385865
Pb       3.66233      0.09750      8.17453        -0.024845     -0.699403     -0.317471
Pb      14.81719      3.81522      8.35547         0.847460     -0.293428     -0.608045
Pb      14.82548     14.97729      8.18519         0.673799     -0.099501      0.305255
Pb       3.65582      3.70042     12.36603         0.270812     -0.217680     -0.164180
Pb       3.64228     14.94108     12.38650         0.000704      0.110242     -0.124127
Pb      14.92303      3.79157     12.42371         0.016853     -0.932295     -0.671358
Pb      14.99166     14.96761     12.33388        -0.489807      0.013216      0.338391
Pb       3.86752      7.46860      4.19228        -0.091214      0.052763     -0.704058
Pb       3.77801      7.52036      0.08143        -0.126960     -0.461681      0.420160
Pb       0.10451      7.52101      4.18826        -0.236184     -0.286734     -0.123953
Pb      14.96766      7.47620      0.04327         0.294996     -0.262101     -0.077498
Pb       3.75128      7.51187      8.20546        -0.223996      0.418178     -0.410188
Pb       0.03089      7.54099      8.37206        -0.122594     -0.005099     -0.246288
Pb       3.62120      7.49344     12.28742         0.793370     -0.208267      0.959946
Pb      14.89427      7.43371     12.31367        -0.351993      0.472522      0.129149
Pb       3.84673     11.08846      4.35701        -0.602090      0.719506     -0.969584
Pb       3.77695     11.14064      0.02188        -0.392808      0.513816      0.086810
Pb       0.17062     11.12786      4.14598        -0.406696      0.343397      0.002966
Pb       0.04797     11.32770      0.12847         0.224312     -0.215789     -0.531470
Pb       3.78266     11.27980      8.22801        -0.198097      0.020800     -0.505896
Pb       0.09098     11.27281      8.19884         0.012079     -0.013227      0.155800
Pb       3.74961     11.26212     12.25254        -0.101419     -0.059659      0.765787
Pb       0.02545     11.28369     12.32110         0.076527      0.122464      0.180238
Pb       7.43800      3.83019      4.02418         0.172333     -0.585347      0.176373
Pb       7.47657      3.69693     16.39077        -0.222560      0.084729      0.768098
Pb       7.51286     14.88724      4.14906        -0.033505      0.368938     -0.390361
Pb       7.39922     14.92319      0.01317         0.753444      0.091388      0.572612
Pb       7.36841      3.69300      8.21521         0.539014      0.239843     -0.093490
Pb       7.45109      0.23899      8.19425         0.222102     -1.296575     -0.270381
Pb       7.28987      3.80387     12.38598         0.584376      0.143354     -0.346968
Pb       7.43896     14.91129     12.30975         0.025167      0.667206     -0.081620
Pb       7.57115      7.48395      4.10451         0.289886      0.255383     -0.149155
Pb       7.52880      7.46156     16.30193        -0.602665      0.257863      0.840416
Pb       7.52814      7.39878      8.34881         0.086386      0.476175     -1.261692
Pb       7.44757      7.62310     12.33632         0.104444     -0.590527     -0.228114
Pb       7.67709     11.12968      4.22289         0.029488     -0.020217     -0.316876
Pb       7.48557     11.25433     16.38162         0.075435     -0.143139     -0.275101
Pb       7.64311     11.32316      8.12973        -0.831273     -0.302278     -0.037295
Pb       7.47533     11.33242     12.14030         0.000511     -0.879394      1.164316
Pb      11.06448      3.84334      4.15001         1.498334     -0.921634      0.212624
Pb      11.27895      3.74899      0.03786        -0.309094     -0.523736     -0.243058
Pb      11.29230     14.93910      4.12528        -0.667038      0.188834     -0.319220
Pb      11.26085     14.95473      0.08164        -0.472682     -0.043470      0.243108
Pb      11.19967      3.71678      8.31542        -0.391619     -0.159571     -0.694333
Pb      11.17200      0.05709      8.24547         0.018699     -0.472414     -0.230020
Pb      11.14554      3.71354     12.35397         0.103012     -0.082339     -0.078132
Pb      11.21282      0.04008     12.44686         0.280137     -0.065736     -0.587553
Pb      11.44321      7.48446      4.20580        -0.599948      0.444336     -0.484635
Pb      11.24657      7.44831      0.08050         0.482124      0.260237     -0.396819
Pb      11.24824      7.45506      8.27998         0.062260      0.265120     -0.533767
Pb      11.21422      7.43357     12.30241        -0.145199      0.242698      0.219444
Pb      11.39615     11.10622      4.13274        -0.367410     -0.015066     -0.626898
Pb      11.33008     11.12610     16.39006        -0.180732      0.448740      0.675040
Pb      11.33304     11.33549      8.31470        -0.148865      0.144338     -0.519045
Pb      11.19363     11.25563     12.29492         0.162831     -0.174329     -0.057989
Ti       1.83230      1.79041      2.19695         0.342769      0.663762     -0.496230
Ti       1.77005      1.82069     14.36697         0.732830     -0.416078     -0.083282
Ti       1.87671     13.14643      2.24034         1.163254     -1.742761     -1.272745
Ti       1.90038     13.09293     14.47736        -0.560908     -0.130293     -0.467548
Ti      13.09160      1.79739      2.12042         0.240830      0.947670      0.273896
Ti      13.10775      1.84071     14.35344        -0.708901     -0.132242     -1.391059
Ti      13.15043     13.08884      2.15417        -0.445832     -0.937267      0.309984
Ti      13.09766     13.13001     14.41590         1.696741     -0.217199     -0.759679
Ti       1.74930      1.91200      6.07070         1.660223     -0.140968      1.414440
Ti       1.75458     13.15851      6.08263         1.493545     -0.301752      1.797527
Ti      13.05392      1.87633      6.18622        -0.520353     -0.394745      0.414996
Ti      13.06284     13.03557      6.16189        -0.203651      1.146988      0.855868
Ti       1.83301      1.78252     10.25884        -0.945940      1.101464      0.137111
Ti       1.88255     13.15085     10.22597        -0.497720     -0.557227     -0.233971
Ti      13.06480      1.90858     10.25263         0.313856     -1.652084      2.315109
Ti      13.14378     13.13489     10.34393        -0.394249      1.377359     -0.540519
Ti       1.92731      5.52105      2.15011        -0.264040      0.863769     -0.314641
Ti       1.79012      5.62089     14.33147         0.598591     -0.317046      0.458225
Ti      13.18433      5.53674      2.07077        -0.075364      0.432304     -0.003875
Ti      13.01319      5.55629     14.37930         0.285891      1.010997      0.759753
Ti       1.83197      5.67770      6.17267         0.200468     -1.419653     -0.187769
Ti      13.12176      5.61592      6.19244         0.495658     -0.799403     -0.512433
Ti       1.86684      5.59914     10.33019        -0.320959     -0.038664     -0.673829
Ti      13.08519      5.58163     10.30738         0.206685      0.888692     -0.320640
Ti       1.90785      9.32402      2.16142         1.761547     -0.032467     -0.864828
Ti       1.81176      9.30478     14.36707         0.200342      1.103789     -0.041923
Ti      13.30734      9.29564      2.03191        -1.471768      0.847949     -0.454009
Ti      13.08436      9.38693     14.33263         0.678147     -0.625666     -0.170803
Ti       1.92152      9.33949      6.29066         0.122632      1.267320      0.097729
Ti      13.21050      9.35079      6.25603        -0.236855     -0.070834     -0.002493
Ti       1.85770      9.35413     10.41395        -0.252776      0.918736     -1.463798
Ti      13.08908      9.42220     10.27524         0.273468     -1.094205     -0.412610
Ti       5.61889      1.85601      2.10025         0.033476     -0.544011      0.451642
Ti       5.60582      1.81690     14.38731        -0.734870      0.616370     -0.814694
Ti       5.63951     13.10345      2.15916        -0.665651      0.699140     -0.183472
Ti       5.65832     13.10070     14.28237        -1.519418     -0.921478      0.566067
Ti       5.54914      1.91151      6.20783         0.679464     -0.647317     -0.848620
Ti       5.56166     13.13180      6.16403        -0.196598      0.102592     -0.342860
Ti       5.57768      1.90410     10.26247        -0.649199     -0.213233      0.741893
Ti       5.63146     13.14141     10.22693        -0.625006      0.705966     -0.790881
Ti       5.66224      5.61613      2.14445        -0.685352      0.819071     -1.374652
Ti       5.56648      5.55944     14.38792        -1.164632      0.965026     -0.136268
Ti       5.63310      5.61701      6.26386        -0.120864      1.599225     -0.434549
Ti       5.52825      5.68623     10.19924         1.092714     -0.460583      0.672745
Ti       5.75274      9.44659      2.08383        -1.106333     -1.686282     -0.085569
Ti       5.56329      9.32403     14.35961         0.180920      0.188004     -0.082871
Ti       5.69909      9.37806      6.14916         0.550609      0.175002      1.015355
Ti       5.56291      9.37098     10.22227         0.688065      0.464605     -0.446811
Ti       9.35102      1.86504      2.08450         0.585128     -1.006741     -0.191996
Ti       9.32712      1.82919     14.41141         0.066394     -0.402614     -0.097116
Ti       9.38212     13.02267      2.11115         0.759308      0.627083     -0.182833
Ti       9.38271     13.05838     14.36459         0.069068      0.500139      0.443344
Ti       9.33352      1.87083      6.06877         0.124297     -0.517519     -0.801579
Ti       9.30228     13.11988      6.13691         1.263918      0.787601      0.208289
Ti       9.26313      1.84305     10.34585         1.390194      0.758545      0.028534
Ti       9.37860     13.20733     10.26287         0.539671     -0.302484     -0.550426
Ti       9.48215      5.59673      2.06677        -1.201968      0.849865     -0.275710
Ti       9.27282      5.59814     14.44506         0.560555      0.261249     -0.649389
Ti       9.36840      5.53107      6.11530        -0.063678      1.835207      1.198071
Ti       9.35199      5.57030     10.22825        -0.679590     -0.226788      0.586913
Ti       9.48685      9.28488      2.00758         0.157637      0.227038      0.346221
Ti       9.36757      9.31365     14.30754        -0.463582      0.204313      0.322743
Ti       9.46457      9.36830      6.19762        -1.104449     -1.596842     -0.716615
Ti       9.36645      9.36003     10.17055        -0.234854      0.669853      0.176963
O       1.68058      1.82817      0.39787         0.299766     -0.183274     -1.358641
O       1.76615      1.82594     12.52425        -0.080035      0.572850      0.160362
O       1.84238     12.99398      0.29996         0.359950      0.657817      0.304604
O       1.83308     13.14993     12.59002         0.072573     -0.117429     -0.504338
O      13.17331      1.83228      0.27633        -0.223436     -0.225670     -0.522789
O      13.18866      1.92190     12.44599        -0.073382      0.368953      1.487620
O      13.23307     13.17085      0.34287        -0.599542     -0.064164     -1.072308
O      13.19865     13.05422     12.53749        -0.399706      0.105461      0.282579
O       1.95434      1.73615      4.29524        -0.118266      0.505231     -0.206067
O       1.98995     13.18254      4.32817        -0.611638     -0.338322     -1.172253
O      13.11576      1.83842      4.40149        -0.249159     -0.098386     -0.564164
O      13.01598     13.11784      4.35716         0.381923     -0.165489     -0.151922
O       1.83129      1.81253      8.42129         0.604364      0.139576      0.051417
O       1.76701     13.07897      8.41330         0.302702      0.507341      0.217625
O      13.02361      1.77874      8.48403         0.038637      0.530494     -1.463237
O      13.09727     13.07592      8.49617         0.112231      0.249654     -0.175779
O       2.07007      5.66904      0.30823        -0.618462     -0.240000     -0.604450
O       1.85359      5.58181     12.43603        -0.032482     -0.098445      1.011529
O      13.11888      5.65361      0.16897        -0.451277     -0.187822      0.372252
O      13.00081      5.58107     12.55144         0.699342     -0.448024     -0.872145
O       1.61530      5.58857      4.33019         0.945031      0.352516      0.115066
O      13.17077      5.49111      4.25266         0.028412      0.630615      1.051131
O       1.77489      5.55756      8.46174         0.429591      0.444569     -0.234560
O      13.09553      5.62121      8.42904        -0.097271      0.001290      0.210358
O       1.88736      9.44675      0.26218         0.112830     -0.446710     -0.193691
O       1.76450      9.35079     12.46281         0.258377     -0.096641      0.612600
O      13.19345      9.39591      0.15528         0.105447     -0.643550      0.303930
O      13.17240      9.39733     12.45929        -0.417788     -0.018464      0.281996
O       1.86202      9.36534      4.42839        -0.058771     -0.129138     -0.663922
O      13.26341      9.34725      4.35857        -0.353076      0.274640      0.116190
O       1.97390      9.43256      8.46139        -0.485767     -0.439647      0.706005
O      13.07635      9.26303      8.33516        -0.178222      0.127967      1.436099
O       5.76046      1.81972      0.29647        -0.531268     -0.205044     -1.318338
O       5.63568      1.95398     12.51698        -0.140483     -0.084374      0.187102
O       5.61284     13.22301      0.21860         0.264444     -0.386073     -0.027834
O       5.48257     13.13601     12.44925         0.408360      0.089350     -0.144103
O       5.51949      1.90453      4.33612         0.516346      0.140516      0.241311
O       5.56750     13.15262      4.21332         0.151465     -0.520323      1.492312
O       5.53960      1.83640      8.42087         0.043754      0.185138     -0.457421
O       5.67250     13.14239      8.41475        -0.096253      0.228367     -0.345271
O       5.68295      5.54810      0.26599        -0.646890      0.218779     -0.022394
O       5.46734      5.57758     12.54521         0.432263     -0.131657     -0.557040
O       5.62008      5.70831      4.39833         0.170171     -0.620148     -0.211402
O       5.48100      5.82425      8.38618         0.813989     -0.488017     -0.182463
O       5.72055      9.36191      0.18585        -0.296308      0.189731      0.425100
O       5.60551      9.35755     12.54026         0.034297     -0.138277     -0.393794
O       5.65424      9.48658      4.29598         0.135512     -0.373374     -0.247491
O       5.52109      9.42515      8.39418         0.285669     -0.558929      0.989838
O       9.36524      1.89011      0.22307         0.260071      0.201076     -0.636169
O       9.26977      1.65070     12.52615        -0.133348      0.548388      0.428359
O       9.40745     12.98323      0.29122        -0.099388      0.159121     -0.784795
O       9.41255     13.11642     12.50770        -0.067150      0.255987     -0.020050
O       9.40332      1.92845      4.20727        -0.160428     -0.197691      1.134903
O       9.38205     13.09928      4.29975         0.366355      0.019390      0.280322
O       9.32997      1.91245      8.49214        -0.054697      0.292890     -0.087462
O       9.26328     13.18615      8.44310         0.141784     -0.311243     -0.359800
O       9.28847      5.54767      0.19374         0.866174      0.288731      0.411086
O       9.30448      5.67032     12.63880         0.168432     -0.123950     -1.068912
O       9.37568      5.52853      4.30387        -0.127007      0.396349     -0.671580
O       9.41674      5.51497      8.40224        -0.231672      0.183325      0.280007
O       9.35048      9.33145      0.14924         0.144139      0.190599      0.578730
O       9.41396      9.38164     12.47689        -0.241073     -0.131340     -0.168171
O       9.45346      9.29735      4.30109        -0.057608      0.318419      0.337312
O       9.42293      9.32738      8.31469        -0.266449      0.091307      1.263652
O       3.76589      1.49750      2.20473         0.049550      0.127750      0.213180
O       3.69185      2.12714     14.58483         0.336573     -0.202322      0.081519
O       3.78889     13.46149      2.24277        -0.528844      0.109775     -0.143107
O       3.75218     12.80273     14.52900         0.392157      0.265772      0.522318
O       0.03599      2.09111      2.53389        -1.605544     -0.474564     -0.461036
O      14.88721      1.61466     14.55869         1.696375     -0.408959      0.603998
O      15.00410     12.80814      2.36478         0.260899      0.023434      0.310723
O       0.00546     13.33807     14.76262        -1.140210      0.139589     -0.399155
O       3.77286      1.59677      6.32722        -1.277451      0.505613      0.392316
O       3.67387     13.15466      6.35416         0.882191      0.559974      0.433357
O       0.00740      2.02124      6.40528        -1.926583      0.192821      0.072394
O      14.96549     12.96222      6.36650        -0.674045      0.238826      0.044664
O       3.69221      1.64842     10.60995         0.405285     -0.010234     -0.457444
O       3.69202     13.56608     10.36075         0.474821     -0.709443      0.338676
O      14.99228      2.28810     10.38980        -0.112406     -0.228151      0.487530
O      14.94313     12.86316     10.37615         1.329887      0.089466      0.783667
O       3.76530      5.87366      2.38783        -0.098723     -0.170438      0.366529
O       3.68139      5.23096     14.56957        -0.197221      0.096831     -0.134515
O      14.99169      5.31028      2.12538         0.583357     -0.062429      0.391928
O      14.97578      5.93019     14.61048         0.672895     -1.024787     -0.358453
O       3.73188      5.87468      6.38637        -0.128885     -0.309189     -0.057791
O       0.01650      5.34794      6.46072        -1.348127      0.488917      0.049579
O       3.73891      5.96222     10.45741        -0.861316      0.358509      0.048476
O      15.00650      5.47456     10.47140        -1.207752     -0.867060      0.426919
O       3.77600      9.03237      2.29316         0.531072      0.504006      0.078048
O       3.69597      9.63891     14.47138         0.434527     -0.028931      0.482233
O       0.11592      9.74370      2.27442        -1.241857     -0.242634      0.198718
O       0.01587      9.06607     14.51429        -0.597566      0.059002      0.248173
O       3.76975      9.29036      6.40541         0.125599      0.034451     -0.166966
O       0.03568      9.37612      6.52370        -0.680353      0.220587      0.021253
O       3.72936      9.03544     10.58547         0.043518      0.759895     -0.443626
O      14.93780      9.61364     10.41234         0.317787      0.110509     -0.069715
O       7.57965      2.19106      2.30213        -1.763048      0.027760      0.201306
O       7.42860      1.56726     14.54577         0.657995     -0.207788      0.293295
O       7.56645     13.00101      2.32524        -0.713972     -0.994223      0.120852
O       7.46436     13.37118     14.49850         1.064903      0.188811      0.225985
O       7.49454      1.98208      6.41247        -1.323991      0.488268      0.362353
O       7.46257     12.89643      6.18347         0.015347      0.189204      0.420959
O       7.44678      2.25797     10.47064        -0.431015     -0.006309      0.024074
O       7.45502     12.85905     10.48608         0.709036      0.613099      0.080755
O       7.53173      5.40406      2.23968         0.513302     -0.122632      0.725285
O       7.41672      5.92001     14.51980         0.709272     -0.084068      0.118396
O       7.51067      5.45107      6.40760        -0.867700     -0.078726      0.464059
O       7.44085      5.43172     10.49363         0.701026     -0.206165     -0.321485
O       7.58488      9.40118      2.32070        -0.413973      0.769298     -0.041925
O       7.48715      9.02361     14.51744         0.323572      0.069872     -0.014236
O       7.53945      9.57914      6.36729        -0.455531     -0.075710     -0.057495
O       7.44090      9.77796     10.49406         1.039760     -1.233175     -0.653151
O      11.24797      1.63872      2.26167         0.939061      0.217760      0.170732
O      11.22008      2.12975     14.44185        -0.461588      0.079583      0.610390
O      11.31461     13.23148      2.33805        -1.095841      0.358548      0.124286
O      11.27963     12.83755     14.64034        -0.846274     -0.052581      0.039155
O      11.12423      1.63412      6.42153         1.707270      0.410558     -0.039343
O      11.26342     13.35496      6.55519        -0.997682     -0.909258     -0.570854
O      11.20159      1.54691     10.68875        -0.576189      0.779797     -0.864834
O      11.24769     13.58274     10.39180        -0.950074     -0.947177      0.649526
O      11.31716      5.96864      2.34206         0.047000     -0.738631     -0.446076
O      11.17051      5.31410     14.52924         0.744672     -0.162314      0.631535
O      11.25298      5.72444      6.35917        -0.277907     -0.068874      0.101638
O      11.24641      5.84906     10.57931        -0.894787      0.116779     -0.492072
O      11.38013      9.00737      2.20516        -0.198084      0.304527      0.195016
O      11.20127      9.60225     14.61724         1.001301      0.037247     -0.387353
O      11.24693      9.26808      6.37554         1.655380     -0.343799      0.078764
O      11.21557      9.08148     10.49228         0.006307      0.424193     -0.209710
O       2.09141      3.71660      2.34644         0.514662     -0.791311      0.370643
O       1.56603      3.64734     14.66676        -0.158251      1.671848     -0.203669
O       1.50814     14.91618      2.43831         0.128607      0.896132     -0.270734
O       2.07521     14.98645     14.55088         0.162299      0.467009      0.715659
O      12.93141      3.71180      2.26255        -0.432865      0.016054     -0.027966
O      13.34117      3.69495     14.63093         0.027138      0.776530     -0.016741
O      13.26777     15.00359      2.41720         0.715667     -0.863044      0.103932
O      12.78551     14.99880     14.47893         0.196544     -0.365079      0.668943
O       2.07244      3.75621      6.26703         0.373023     -0.512100      0.360644
O       1.62737      0.01830      6.36399         0.374772     -0.558598      0.289566
O      12.87643      3.67743      6.47277         0.376508      0.693560      0.222632
O      13.26201     14.97880      6.53550        -0.104604      0.125453     -0.832545
O       2.14377      3.77217     10.35674         0.024380     -0.377552      0.754457
O       1.52002     14.99836     10.59605         0.160994     -0.077534     -0.535767
O      12.73447      3.73712     10.43029         0.281919      0.831479      0.112731
O      13.35280      0.08774     10.56838         0.615809     -1.444310     -0.134705
O       1.57502      7.46309      2.37793         0.115560      0.450802     -0.134149
O       2.24238      7.43274     14.55711        -0.643925      0.296886      0.011945
O      13.57692      7.51128      2.27619        -0.231005     -1.039691      0.171420
O      12.97822      7.44998     14.48383        -0.955031      0.564581      0.390163
O       1.78162      7.49551      6.41797        -0.518847     -0.164083      0.415819
O      13.20900      7.43122      6.29321         0.202906      0.373701      0.410531
O       1.49711      7.54236     10.53792         0.626533     -0.797290     -0.330408
O      13.30127      7.47282     10.47599         0.067888      0.371478      0.120929
O       2.20763     11.23607      2.46013        -0.129254      0.068147      0.188263
O       1.59342     11.27719     14.56166        -0.149157     -1.776433      0.029147
O      12.89752     11.14480      2.28348         0.110723      0.787456      0.281841
O      13.31586     11.21564     14.54973         0.297352      0.361825      0.347450
O       1.91857     11.25613      6.43169        -0.034126     -0.135473     -0.163429
O      13.04248     11.22185      6.51101        -0.279643     -0.250924     -0.317989
O       2.07816     11.25962     10.53623         0.063685      0.408892      0.009263
O      12.84578     11.26868     10.45139        -0.747369     -0.468791      0.149837
O       5.36667      3.72678      2.32833         0.184853     -0.110981      0.443723
O       5.90548      3.75631     14.57633        -0.068839     -1.411657      0.227256
O       6.00458     14.96408      2.33550        -0.344375      1.391282     -0.285752
O       5.29793     14.97169     14.51699         0.275885      0.275324      0.093803
O       5.35279      3.83714      6.49588         0.373375     -1.890364     -0.061208
O       5.81897     14.98415      6.35176        -0.334440      0.147446      0.084069
O       5.30924      3.82784     10.25761        -0.037396     -0.432875      0.641221
O       5.90642      0.06252     10.43523        -0.021327     -0.292920      0.252717
O       5.83232      7.47735      2.33208         0.106256      0.410044      0.135587
O       5.32086      7.42379     14.61159        -0.093169      0.852569      0.053903
O       5.77392      7.59766      6.41793         0.143020     -1.524515      0.064980
O       5.95705      7.55627     10.48678        -0.392811     -0.129322     -0.135678
O       5.34929     11.24427      2.23894         0.358681     -0.101362      0.036396
O       5.90926     11.22192     14.49840        -0.039428      0.149562      0.568357
O       5.53222     11.23688      6.55092        -0.360307      0.926036     -0.594578
O       5.36733     11.28898     10.44524        -0.733439     -0.250585      0.341426
O       9.69026      3.78481      2.35871        -0.085898     -0.068860     -0.848917
O       9.04332      3.70465     14.62083         0.142589     -0.118542     -0.543858
O       9.25586      0.01118      2.24759        -0.208894     -0.924219      0.181594
O       9.65705     14.95545     14.74479        -0.465188     -0.048742     -0.428027
O       9.41174      3.69917      6.31352         0.614769      0.281939      0.505118
O       9.18131     15.00349      6.36240        -0.329916     -0.580058      0.041354
O       9.68157      3.74339     10.49514        -0.440219      0.163252      0.154578
O       8.95352      0.02689     10.32698        -0.138772     -0.528937      0.868122
O       9.32097      7.46384      2.38187        -0.778228     -0.525967     -0.272666
O       9.75183      7.48782     14.63868        -0.982614     -0.336234     -0.214176
O       9.12618      7.45730      6.34573         0.517773     -0.269293      0.292213
O       9.14964      7.49905     10.35994        -0.280555      0.038802      0.322392
O       9.64682     11.12697      2.35272        -0.093350      0.623407      0.003598
O       9.06429     11.24264     14.55588         0.188463     -0.309745      0.085306
O       9.41737     11.22063      6.36418         0.805130      1.488472      0.245688
O       9.65557     11.27039     10.38870         0.000680      0.105545      0.327422
