  # total energy = -7881.89627411 
CRSYTAL
PRIMVEC
    15.6000000000000000    0.0000000000000000    0.0000000000000000
     0.0000000000000000   15.6000000000000000    0.0000000000000000
     0.0000000000000000    0.0000000000000000    17.640000000000000
PRESSURE
-4.77535 -5.03577 -3.81504 0.027594 -0.155029 -0.026533
PRIMCOORD
320 1
Pb       3.96223      3.89953      4.32049        -0.239485     -0.476785     -0.427925
Pb       3.93425      3.83016     17.57507        -0.198208      0.558312     -0.113497
Pb       3.82703     15.53988      4.39125         0.150491     -0.026991      0.033839
Pb       3.89035      0.04956     17.62311         0.050436     -0.779771     -0.388192
Pb      15.51741      3.85036      4.31377         0.158298     -0.313858     -0.170540
Pb       0.03401      3.80353     17.51405        -0.173134      0.668034      0.203865
Pb       0.01727      0.00821      4.33792        -0.215416     -0.153635      0.364851
Pb       0.00702     15.57320      0.02637        -0.280056     -0.125810     -0.477127
Pb       3.86130      3.90015      8.73393         0.077152      0.083990      0.310955
Pb       3.88517      0.02264      8.79101        -0.317648     -0.187725     -0.365092
Pb       0.02504      3.87311      8.82469        -0.197034      0.195311      0.016920
Pb      15.54875      0.10329      8.75810         0.236302     -0.758533      0.119382
Pb       3.88196      3.94668     13.16631        -0.445288     -0.170699      0.062369
Pb       3.96954      0.08475     13.18015        -0.780532     -0.407653     -0.099161
Pb       0.02691      3.91622     13.21788        -0.223318     -0.015724     -0.578192
Pb      15.52339     15.54392     13.21956         0.321148      0.460904     -0.433182
Pb       3.93571      7.75914      4.28552        -0.407014      0.506592     -0.235175
Pb       3.91115      7.75088     17.55358         0.093325     -0.208298     -0.355741
Pb      15.56720      7.58129      4.34411         0.535649      1.036639     -0.415178
Pb      15.59047      7.75401     17.55172        -0.099153     -0.176832     -0.148174
Pb       3.80026      7.73955      8.74380         0.529737      0.250238      0.368204
Pb       0.02973      7.84465      8.70159        -0.184922     -0.007235      0.172794
Pb       3.91347      7.80601     13.17036        -0.188455      0.101576      0.368799
Pb      15.58662      7.75121     13.15290        -0.195656     -0.157206      0.293078
Pb       3.90258     11.61167      4.31032        -0.279738     -0.002944      0.253173
Pb       3.83662     11.64849     17.55451         0.413951      0.432440     -0.294498
Pb       0.07164     11.74723      4.39155        -0.078219     -0.496996      0.058822
Pb       0.03765     11.65101     17.59588        -0.364391     -0.431041      0.128235
Pb       3.85814     11.76641      8.82186         0.082861     -0.177782     -0.186475
Pb       0.00835     11.58786      8.72106        -0.009961      0.440525     -0.003007
Pb       3.90811     11.60638     13.18827         0.535206      0.321372     -0.443964
Pb       0.02391     11.72923     13.20675        -0.596795      0.005299     -0.117619
Pb       7.74629      3.84703      4.27322        -0.163496      0.133025      0.541244
Pb       7.83439      3.88053     17.63109        -0.039462      0.429591     -0.487130
Pb       7.76641     15.57401      4.38415         0.519201     -0.602193      0.306905
Pb       7.76298     15.57300     17.56202        -0.271326     -0.670064      0.177788
Pb       7.79667      3.90153      8.77972         0.013666      0.510072      0.085799
Pb       7.71981      0.07285      8.74813         0.248882     -0.807380      0.359121
Pb       7.66206      3.83865     13.23012         0.626948      0.429290     -0.008266
Pb       7.79739      0.04091     13.10772        -0.182697     -0.254334      0.210497
Pb       7.73498      7.68744      4.31067         0.075061      0.579457      0.139822
Pb       7.78157      7.72366     17.49947        -0.135820     -0.138719      0.033268
Pb       7.78341      7.82122      8.79206        -0.180099     -0.244900     -0.334299
Pb       7.85577      7.67612     13.22109         0.096560      0.235779      0.267319
Pb       7.70914     11.55545      4.28111         0.010968      0.140974      0.277156
Pb       7.79305     11.62458     17.45349         0.116923      0.607060      0.401066
Pb       7.76917     11.66298      8.63569        -0.446624      0.118624      0.472263
Pb       7.74089     11.66563     13.16443        -0.316761      0.050477     -0.415347
Pb      11.75205      3.80940      4.24513        -0.661606      0.301448      0.479261
Pb      11.56974      3.82895     17.56459         0.626819      0.712112      0.232776
Pb      11.75679      0.02059      4.28433        -0.739737     -0.259102      0.694196
Pb      11.77472      0.02340     17.59116        -0.145043     -0.100955     -0.018739
Pb      11.70532      3.87656      8.75371        -0.015666      0.408470     -0.507884
Pb      11.56822      0.02962      8.77056         0.585550     -0.588552     -0.056271
Pb      11.66563      3.83006     13.16164         0.040268      0.443534      0.332377
Pb      11.66332      0.07526     13.22103         0.273912      0.095577     -0.788479
Pb      11.61982      7.81251      4.40484         0.119260      0.099947     -0.455151
Pb      11.74202      7.81905     17.63413         0.082562     -0.549823     -0.490486
Pb      11.73916      7.80475      8.76769        -0.206932     -0.094221      0.124353
Pb      11.66249      7.84157     13.12327        -0.186322     -0.209649      0.686403
Pb      11.67661     11.58698      4.45841         0.166035     -0.121936      0.108285
Pb      11.57755     11.74984      0.05234        -0.086114     -0.366070     -0.246849
Pb      11.56624     11.77489      8.90826         0.906383      0.016008     -0.232583
Pb      11.70087     11.68852     13.33125         0.245360     -0.102932     -0.510474
Ti       1.90089      1.87188      2.29317         0.689594      1.161647      0.114115
Ti       1.89731      1.91916     15.66227         0.275020      0.164764     -1.930632
Ti       1.92639     13.61526      2.40247         0.329926     -0.729065     -0.763585
Ti       1.78039     13.65191     15.63474         1.446648      0.891818     -0.157773
Ti      13.58434      1.87013      2.39674         0.139004      0.448153     -0.221745
Ti      13.57979      1.95764     15.57973         0.474634      0.253249     -1.334835
Ti      13.57439     13.56293      2.39628         0.406136     -0.419232      0.534355
Ti      13.51778     13.55067     15.68873         0.182182     -0.153685      0.058742
Ti       1.92564      1.97317      6.81524         0.481645     -0.864024     -0.426570
Ti       1.94545     13.61197      6.75050        -0.038783     -0.038600      0.459052
Ti      13.67928      1.90642      6.79438         0.188024      0.476620     -0.607160
Ti      13.67606     13.62827      6.71876         0.714199     -0.069145      0.632984
Ti       1.89602      1.97620     11.25977        -0.064410     -0.259246     -0.207414
Ti       1.93624     13.64279     11.20823         0.528524      1.033497      1.508645
Ti      13.64145      1.98699     11.14940         0.030889     -0.108605      1.955653
Ti      13.60569     13.60769     11.20830         0.215846      0.574325     -1.303264
Ti       1.97976      5.76188      2.38879        -0.500462      0.668437      0.170029
Ti       1.93071      5.86325     15.59426         0.363646     -0.235662      0.629654
Ti      13.61828      5.88674      2.34835        -0.294612     -0.291302     -1.225043
Ti      13.67688      5.73432     15.56863        -0.970330      1.242428      0.247503
Ti       1.90003      5.81070      6.66317         0.273931      0.511811      1.531230
Ti      13.63164      5.91800      6.66867        -0.572256     -1.341827     -0.073806
Ti       1.91564      5.95755     11.19489        -0.191281     -1.476891      0.300188
Ti      13.50654      5.87309     11.13216         1.234256     -0.867193      0.939617
Ti       1.89735      9.74240      2.30604         0.252579     -0.758450      1.177947
Ti       1.97478      9.76155     15.64116         0.087316     -1.262789      0.031898
Ti      13.68302      9.70049      2.29682        -0.134371      0.406903     -0.538704
Ti      13.61303      9.65278     15.62326         0.293125     -0.074400     -1.339924
Ti       1.93720      9.69918      6.70958        -0.191357      0.962522     -0.972062
Ti      13.55449      9.81511      6.82536         0.267217      0.687187     -1.372394
Ti       1.91194      9.79644     11.25285         0.061348     -0.079658     -1.810238
Ti      13.64604      9.70940     11.27437        -0.538266      0.291270     -0.717464
Ti       5.79529      1.86466      2.38183        -0.543370      1.014979     -0.516036
Ti       5.90599      1.89326     15.66377        -0.625608      0.441800     -0.581809
Ti       5.85734     13.67074      2.44816        -0.311419     -0.276660     -0.777349
Ti       5.78228     13.68295     15.46530        -0.130581     -0.238492      1.581235
Ti       5.90207      1.93420      6.79285        -1.653354      0.710307      0.179801
Ti       5.84674     13.68914      6.69685        -0.134426     -0.360686     -0.743756
Ti       5.81307      1.93597     11.17042         0.004812      0.563612     -0.013083
Ti       5.85366     13.69278     11.15398        -0.456339     -1.265002      2.460363
Ti       5.85695      5.86074      2.33827        -0.141211     -0.046805     -0.444273
Ti       5.86254      5.77844     15.51806        -0.437048      0.762865      0.518786
Ti       5.82600      5.85903      6.85964         0.474185      0.364467      0.690174
Ti       5.79747      5.83296     11.30105         0.191199     -0.275368      0.351311
Ti       5.83221      9.75123      2.24204        -0.051841     -0.646499      0.483848
Ti       5.90578      9.76020     15.61704        -1.217198     -0.357047     -0.354992
Ti       5.77454      9.80018      6.77256         0.455460     -0.900301      0.050103
Ti       5.83884      9.66943     11.16487        -0.448087      1.175835     -0.947140
Ti       9.60532      1.84311      2.29320         1.137510      0.015775      0.328662
Ti       9.71482      1.88432     15.61026         0.197046      1.131433     -0.527683
Ti       9.78466     13.51054      2.49823        -0.513295      0.595682     -1.307458
Ti       9.68131     13.69605     15.52371        -0.280173     -0.535745     -0.388245
Ti       9.73508      1.90950      6.81631         0.521811      0.013161     -1.038089
Ti       9.79559     13.56476      6.76357        -0.480029      1.509255     -1.550100
Ti       9.66185      2.02964     11.18584         0.348445      0.416343      0.690118
Ti       9.77005     13.63430     11.28587        -0.444402      0.203778      0.027086
Ti       9.69932      5.78265      2.41804         0.239524      0.332987     -0.514203
Ti       9.75701      5.85217     15.62319         0.600932      0.211433     -1.404609
Ti       9.75668      5.83346      6.72008        -0.407795     -0.172679      0.469323
Ti       9.71117      5.90031     11.19246        -0.163177     -1.055393      0.183780
Ti       9.78994      9.72319      2.36361        -0.126728     -0.305358     -0.402353
Ti       9.77611      9.72508     15.56406         0.176873     -0.887728     -1.286480
Ti       9.75049      9.71013      6.79217         0.409319     -0.431940     -0.724547
Ti       9.69394      9.77838     11.15198         0.548738     -0.107166      1.137644
O       1.86311      1.98072      0.51222        -0.282603     -0.388794      0.393723
O       1.94556      1.89045     13.82674        -0.032925      0.103146      1.824747
O       1.92154     13.62155      0.60350        -0.070121     -0.146668      0.897924
O       1.67426     13.88489     13.89287         0.329096     -0.947365      0.914895
O      13.60593      1.83772      0.64909         0.044517     -0.095583      0.320135
O      13.55611      2.09140     13.79497        -0.197481     -0.686369      1.129103
O      13.47990     13.68060      0.64674         0.063468      0.008139     -0.238731
O      13.46970     13.46227     13.96450         0.420505      0.460611     -0.359548
O       1.89656      1.99739      5.06354         0.164488      0.006032      0.353909
O       2.02500     13.42385      5.01918        -0.244950      0.696448     -0.537202
O      13.77979      1.85545      5.00822        -0.271472      0.088866     -0.032364
O      13.81750     13.58408      4.94165        -0.601918     -0.007120      0.874349
O       1.89355      1.93292      9.46365        -0.080251      0.230208      0.448148
O       2.05296     13.61921      9.49895        -0.214648     -0.069892     -0.860382
O      13.74063      1.94815      9.41775        -0.164440      0.012351     -0.674494
O      13.59736     13.64070      9.40109        -0.031571     -0.129508      1.492961
O       1.91538      5.75715      0.67221         0.064877      0.033165     -0.178167
O       1.85059      5.85473     13.86427         0.240663      0.130593     -0.621415
O      13.57572      5.88770      0.55419         0.299541      0.120158      1.729639
O      13.50649      5.78039     13.81910         0.688948     -0.094738      0.383806
O       1.95318      5.99712      4.93791        -0.018444     -0.774551      0.061144
O      13.55905      5.78403      4.87761         0.176045      0.262043      1.374095
O       1.96683      5.76641      9.45377        -0.070281      0.375757     -0.468762
O      13.60981      5.85768      9.37429        -0.230104      0.089263      0.066315
O       1.96540      9.83471      0.55373         0.024972     -0.013499     -0.601733
O       2.05086      9.60743     13.90923        -0.253825      0.576133     -0.351140
O      13.50484      9.66383      0.51166         0.609994     -0.157943      0.621771
O      13.62311      9.68678     13.80050        -0.318357      0.075708      0.891522
O       1.79716      9.74062      4.93334         0.526590     -0.305125      1.274888
O      13.45088      9.97012      5.02408         0.450964     -0.657988      1.398081
O       1.90220      9.93198      9.43229        -0.067094     -0.647223      1.370253
O      13.59667      9.67306      9.50076         0.412836      0.139369      0.224815
O       5.83611      1.84391      0.61781         0.193059     -0.086070      0.112213
O       5.87585      1.95598     13.91448        -0.336818     -0.172254      0.081001
O       5.83131     13.76458      0.65448         0.127045     -0.157526      1.594255
O       5.84910     13.75361     13.74864         0.008615     -0.246985     -0.523038
O       5.71683      2.05335      5.05613         0.440198     -0.431608     -0.303677
O       5.85095     13.70777      4.87044        -0.135741      0.005186      1.734715
O       5.92524      2.07225      9.42189        -0.311876     -0.342650      0.107639
O       5.63907     13.64397      9.49934         0.136961      0.067642     -2.635489
O       5.86455      5.87953      0.61825         0.183337      0.029380     -0.432213
O       5.90322      5.78403     13.75464        -0.471317     -0.065745      0.272482
O       5.92531      5.90307      5.13913        -0.206684      0.097834     -1.094538
O       5.74791      5.76121      9.57447         0.113434     -0.032051     -0.726375
O       5.81005      9.62298      0.47501         0.041189      0.613666      0.585066
O       5.74580      9.86198     13.88176         0.190216     -0.215478     -0.479684
O       5.95106      9.66843      5.01338        -0.284434      0.118056      0.420567
O       5.81090      9.71180      9.38226         0.214663     -0.026368      0.899097
O       9.77892      1.95240      0.51512        -0.649704     -0.223883      0.826298
O       9.79747      2.04957     13.85666        -0.201178     -0.633808      0.530479
O       9.78357     13.36903      0.66675        -0.067175      0.552047      1.471773
O       9.70039     13.68352     13.73117         0.211450      0.142622      1.071217
O       9.84526      1.76749      5.05297        -0.535278      0.408222      1.344540
O       9.79161     13.59007      4.97441        -0.130716      0.175389      1.072885
O       9.57805      2.10263      9.43578         0.513181     -0.462958     -0.492269
O       9.84406     13.55958      9.52215        -0.152316      0.141841     -0.044993
O       9.55458      5.81543      0.64124         0.208574     -0.182642      0.505009
O       9.75658      5.99273     13.82649         0.046854     -0.407251      1.167180
O       9.75746      5.79786      4.94561        -0.285428      0.278936      0.378017
O       9.73052      5.86187      9.44428         0.027559     -0.038778      0.189359
O       9.75304      9.89437      0.61019         0.011130     -0.458867      0.222090
O       9.82057      9.54160     13.74026        -0.293551      0.799590      1.614571
O      10.03706      9.65683      4.99558        -0.841558      0.218417      1.036324
O       9.65826      9.85506      9.39482        -0.033554      0.087829      0.320136
O       3.81099      2.02377      2.68650         0.868046     -0.577195      0.354281
O       3.82009      1.86253     16.11397         0.534578      0.283195     -0.312169
O       3.91058     13.54974      2.93663        -0.039798      0.602645     -0.654495
O       3.90556     13.77037     15.96618        -0.554563     -0.219129     -0.119073
O       0.06665      1.88685      2.84785        -0.998238     -0.108684     -0.471432
O      15.50672      2.01836     15.89124         0.628966     -0.286366      0.663073
O       0.04916     13.56535      2.86586        -0.013597      0.580373     -0.653425
O      15.54037     13.54954     16.22852        -0.348073      0.342008     -0.675530
O       3.93622      1.95045      7.21092        -0.435772      0.221898      0.177117
O       3.90149     13.68737      7.19768        -0.205508     -0.303346     -0.030401
O       0.02337      1.90327      7.24996        -0.102510      0.349344      0.112050
O       0.02169     13.54711      7.14046        -0.340852      0.428453      0.046488
O       3.89180      1.90860     11.65718         0.275403      0.265822     -0.336443
O       3.90286     13.67716     11.67734        -0.772037     -0.145321      0.088278
O      15.52678      1.97399     11.66033         0.413357     -0.203674     -0.261761
O      15.54953     13.66322     11.74960        -0.070860     -0.402658     -0.492907
O       3.91595      5.87896      2.74699         0.131797     -0.145140      0.319448
O       3.90669      5.86266     16.07955         0.077281     -0.458495     -0.446060
O      15.49314      5.83428      2.74838         0.496854     -0.504642      0.205124
O       0.02356      5.86384     16.04244        -0.813053     -0.462283     -0.093034
O       3.82570      5.86022      7.24316        -0.155764     -0.356389     -0.584649
O      15.57043      5.99226      7.04354        -0.144036     -0.234848     -0.114075
O       3.80478      5.92933     11.75965         0.595842     -0.669582     -0.260578
O       0.07019      5.78432     11.55299        -1.324520      0.292220      0.310666
O       3.84614      9.70199      2.77042         1.048715     -0.272307     -0.241288
O       3.91989      9.72608     15.99045        -0.436547      0.024122      0.550096
O       0.05845      9.65903      2.63489        -1.292122      0.291050      0.101091
O       0.00459      9.62247     15.90614        -0.084164      0.758302      0.535273
O       3.95399      9.70320      7.10747        -1.378028      0.156453     -0.121702
O      15.55750      9.68322      7.17188        -0.292160      0.133451      0.131065
O       3.82162      9.82987     11.58856         0.413613     -0.496506      0.326221
O      15.59427      9.69168     11.65743        -0.364030      0.407175      0.070647
O       7.76458      1.78499      2.87965        -0.375575      0.670966     -0.719305
O       7.78216      2.00085     15.91248         0.204852     -0.132316      0.690800
O       7.77643     13.62496      2.91423         0.243824     -0.110146     -0.460322
O       7.80907     13.71982     15.96442        -0.139965     -0.702130      0.042226
O       7.76976      1.84595      7.28182         0.394394      0.696400     -0.816235
O       7.72525     13.70886      7.11790         0.026706     -0.088605      0.228865
O       7.72549      2.01055     11.66097        -0.012752     -0.155487     -0.137748
O       7.78093     13.66741     11.58175         0.405927     -0.068552      0.033662
O       7.77856      5.77778      2.78188        -0.356201      0.292685      0.496154
O       7.77549      5.83386     15.90882         0.116401     -0.464623      0.528813
O       7.84256      5.93390      7.31843        -0.448185     -0.052880     -0.504889
O       7.78131      5.86401     11.77035         0.002645     -0.119797     -0.836263
O       7.75303      9.72594      2.65386         0.498379      0.281079      0.239437
O       7.79058      9.77135     15.96361         0.085302     -0.349714      0.009201
O       7.84277      9.69657      7.14636        -0.212179      0.201159      0.104594
O       7.68546      9.78911     11.64015         1.111320     -0.642704     -0.284116
O      11.62297      1.88135      2.77800         0.614151      0.024843     -0.335493
O      11.68755      1.94798     15.99860        -0.573985     -0.418760      0.247533
O      11.65756     13.57513      2.98873         0.817104      0.136277     -0.994628
O      11.61621     13.58697     16.03057        -0.362410      0.470676      0.079806
O      11.78497      1.89858      7.22442        -1.214446      0.109731      0.126101
O      11.71151     13.65318      7.19314        -0.360899      0.094456     -0.132653
O      11.62926      2.05795     11.65308         0.210984     -0.944668     -0.777864
O      11.70574     13.66348     11.63756        -0.790279     -0.174846      0.302977
O      11.57449      5.67432      2.70042         0.822713      0.283385      0.122590
O      11.72675      5.84400     16.12398        -0.964200     -0.041550     -0.303183
O      11.63287      5.75106      7.15350         1.242893      0.439844      0.036451
O      11.68431      5.74413     11.56561        -0.193505      0.484030     -0.399610
O      11.77463      9.65228      2.69629        -0.622812      0.421663      0.298112
O      11.62078      9.57767     15.97147         0.140892      0.431387     -0.011651
O      11.62787      9.95935      7.25844         0.064241     -0.573469      0.197053
O      11.64924      9.64747     11.45802        -0.203050      0.514581      0.314301
O       1.94719      3.83975      2.80631        -0.279481      0.337525      0.070536
O       1.92936      3.94141     16.05626         0.076885     -1.137937     -0.070901
O       2.02922     15.54504      2.77134        -0.282522      0.206856     -0.119624
O       1.83618     15.58918     16.13124        -0.309214     -0.016115     -0.030631
O      13.61025      3.81008      2.79994         0.363919     -0.250982     -0.221224
O      13.55773      3.90526     16.03241         0.355057     -0.771907      0.130121
O      13.64982     15.48767      2.80926         0.178629      0.981092     -0.081748
O      13.58537      0.00976     16.01252         0.158671     -0.501840      0.088139
O       1.85806      3.89753      7.28627         0.192009      0.698630     -0.833566
O       1.93231     15.57774      7.09387         0.058459      0.081577      0.301071
O      13.70475      3.86194      7.12886        -0.034188      0.744141      0.096368
O      13.74242     15.59588      7.20203        -0.382223     -0.607135     -0.146480
O       1.97112      3.89638     11.65963         0.036686     -0.413689      0.030972
O       1.88243      0.02933     11.66517         0.011462     -0.255304     -0.157292
O      13.66875      3.84827     11.66059        -0.228522      0.721805     -0.766238
O      13.58924     15.51631     11.63371        -0.151336      0.944990      0.095746
O       1.86877      7.73258      2.84659         0.445933     -0.010630     -0.388251
O       1.93148      7.69972     16.12988         0.284665      1.262673     -0.090115
O      13.65287      7.78607      2.83037        -0.325149     -0.380852     -0.330098
O      13.62590      7.74698     15.98290         0.077848      0.228609      0.299498
O       1.94935      7.84602      7.29155        -0.116260     -0.787137     -0.684436
O      13.51266      7.86500      7.11821        -0.123068     -0.804916     -0.121395
O       1.86335      7.81919     11.63919         0.480665      0.706441     -0.297510
O      13.60854      7.73471     11.66774         0.319850      0.087623     -0.549655
O       1.99756     11.64307      2.81697        -0.256451      0.356944     -0.362483
O       1.98222     11.69711     16.01069        -0.337897      0.205579     -0.182057
O      13.74601     11.67424      2.59794        -0.378188     -0.269722      0.310056
O      13.49677     11.60128     16.00063         0.509106      0.383071      0.324118
O       1.84152     11.63518      7.12167         0.751952     -0.045197      0.362996
O      13.62651     11.72197      7.32752         0.031583     -0.139101     -0.563056
O       1.86695     11.72744     11.64781         0.086718     -0.138762      0.407384
O      13.58418     11.67587     11.75075         0.191895     -0.330557     -0.357034
O       5.79691      3.90128      2.66243         0.402529     -0.525090      0.701186
O       5.83566      3.91135     16.11694        -0.054527     -0.738645     -0.282727
O       5.81086      0.05026      2.89816        -0.374303     -0.778080     -0.222937
O       5.92032     15.58502     16.04181        -0.232945      0.491653     -0.022500
O       5.89029      3.93353      7.17786        -0.067591     -0.392431      0.197733
O       5.77942     15.57646      7.30328         0.314110      0.358652     -0.583889
O       5.81643      3.90975     11.73506        -0.327494     -0.640727     -0.310162
O       5.85222      0.00056     11.50875         0.074034      0.967289      0.211339
O       5.93492      7.79397      2.76802        -0.534788      0.067410     -0.002070
O       5.82362      7.71536     15.91708         0.299124      0.641647      0.205258
O       5.76010      7.76499      7.42288         0.551563      0.013934     -0.768922
O       5.75013      7.70018     11.62913         0.305721      1.791502      0.001086
O       5.83155     11.64416      2.85267         0.086264      0.044176     -0.807520
O       5.76944     11.74478     15.91836         0.388554     -0.012295      0.248980
O       5.77428     11.71359      7.18429         0.505483      0.142926     -0.294088
O       5.85105     11.65723     11.44541        -0.282203      0.109111      0.932371
O       9.54542      3.77819      2.89115         0.855180     -0.133715     -0.968207
O       9.76351      3.86430     16.11844        -0.459839      0.154470     -0.341119
O       9.75026     15.54551      2.77616        -0.112454      0.054365     -0.257199
O       9.58817     15.58729     16.03527         1.104316     -0.040794     -0.427864
O       9.72031      3.93636      7.18811        -0.153993     -1.145676     -0.105833
O       9.67086      0.00372      7.30080         0.510174      0.010475      0.020925
O       9.68139      3.93674     11.65045        -0.179196     -0.256423     -0.216077
O       9.63265      0.10423     11.66735         0.818369     -0.610808     -0.407533
O       9.77405      7.81049      2.86238        -0.254555     -0.534493     -0.444262
O       9.63985      7.73237     16.00404         0.160015      0.581486      0.372728
O       9.84058      7.79942      7.30151        -0.077809      0.581118     -0.739885
O       9.73921      7.78105     11.62371        -0.391445      0.632525     -0.600704
O       9.83897     11.62331      2.86530        -0.509937     -0.267496      0.062286
O       9.66517     11.62926     15.98962         0.448824      0.579938     -0.523184
O       9.59452     11.78764      7.12497         0.527459     -1.406152      0.276484
O       9.70848     11.70403     11.79043         0.216280     -0.445373     -0.829832
