  # total energy = -7880.56388782 
CRSYTAL
PRIMVEC
    15.6000000000000000    0.0000000000000000    0.0000000000000000
     0.0000000000000000   15.6000000000000000    0.0000000000000000
     0.0000000000000000    0.0000000000000000    17.640000000000000
PRESSURE
-3.72122 -3.94606 2.19764 -0.069824 0.353954 0.003126
PRIMCOORD
320 1
Pb       3.87663      3.83950      4.38531         0.194016      0.078113     -0.151102
Pb       3.99499      4.00019     17.57571        -0.635020     -0.790093      0.098005
Pb       3.75181     15.45313      4.34108        -0.074547     -0.009016     -0.117953
Pb       3.79334     15.57382      0.04825        -0.238368      0.401114     -0.564549
Pb      15.53734      3.84379      4.35359         0.201606     -0.177211     -0.346500
Pb       0.04140      3.97505     17.58992         0.471833     -0.626283      0.116050
Pb      15.57970     15.53884      4.34991         0.196627      0.512652     -0.629954
Pb      15.40454     15.58358     17.61166         1.031623     -0.064854      0.496127
Pb       3.83262      4.01252      8.78915         0.015933     -0.175810     -0.437015
Pb       3.89073     15.57485      8.74988        -0.210706      0.355378     -0.483752
Pb      15.55640      3.98957      8.82820        -0.051598     -0.185995     -0.189249
Pb      15.50950      0.00123      8.63817         0.330014      0.425802      0.146915
Pb       3.95861      3.75761     13.27203        -0.506427      0.209088     -0.942999
Pb       3.90457     15.58059     13.14444        -0.509530      0.505019      0.278966
Pb       0.02217      3.94608     13.15032         0.506460     -0.245744     -0.040416
Pb      15.49771     15.55837     13.20274         0.533190      0.223020     -0.397933
Pb       3.95894      7.75730      4.42643        -0.127390     -0.229446     -0.369956
Pb       4.00756      7.72563     17.57101        -0.069010      0.164607     -0.347808
Pb       0.03557      7.74948      4.29120         0.119920     -0.583304      0.107937
Pb       0.08573      7.73158     17.48266        -0.084696      0.592713      0.155783
Pb       3.87174      7.80045      8.77583        -0.233733     -0.428966     -0.155330
Pb      15.48790      7.79094      8.80744         0.749653      0.379527     -0.298944
Pb       3.91266      7.73945     13.17768         0.591405      0.042312     -0.388554
Pb       0.09196      7.75172     13.15174        -0.245760      0.151561      0.144121
Pb       3.90174     11.64089      4.32718         0.112522      0.418297     -0.036477
Pb       3.84157     11.72228     17.56999         0.088751     -0.579993      0.365911
Pb       0.00393     11.73905      4.29202         0.122086     -0.059589      0.002108
Pb       0.00378     11.71573     17.44404        -0.126883     -0.220187      0.536355
Pb       3.82293     11.77441      8.86772         0.111421     -0.384311     -0.570425
Pb      15.54076     11.78838      8.74791         0.063934     -0.675713     -0.311989
Pb       3.85568     11.77763     13.15104         0.104978     -0.518828      0.149897
Pb      15.45551     11.80134     13.16310         0.213984     -0.529160      0.091466
Pb       7.74111      3.67549      4.40477         0.200941      0.675288     -0.081068
Pb       7.77531      3.93779      0.00328         0.022720      0.110085     -0.246411
Pb       7.61084     15.49961      4.41874         0.771121     -0.326179     -0.657296
Pb       7.68792      0.03107     17.55077         0.263475     -0.334799      0.220476
Pb       7.59051      3.94387      8.83361         0.531837     -0.105916     -1.016184
Pb       7.74250      0.03514      8.80493         0.304197      0.200059     -0.437065
Pb       7.86796      3.92442     13.27292        -0.192438      0.400478     -0.553603
Pb       7.81570      0.11014     13.11468         0.174764     -0.470737     -0.045288
Pb       7.85632      7.66893      4.37707        -0.082022     -0.082069     -0.360342
Pb       7.77568      7.77913     17.60442        -0.070193      0.022052     -0.531019
Pb       7.70713      7.82411      8.79144        -0.040436     -0.152404     -0.469313
Pb       7.79463      7.81670     13.17512        -0.358711     -0.162156     -0.060630
Pb       7.77276     11.57182      4.35274         0.194703      0.198024     -0.328681
Pb       7.77877     11.65344     17.47685         0.299513     -0.003559      0.254902
Pb       7.79545     11.75775      8.69436        -0.330258     -0.139668     -0.252932
Pb       7.73963     11.80789     13.09873        -0.038499     -0.220318      0.120599
Pb      11.76581      3.80181      4.30914        -0.375160      0.334979      0.263832
Pb      11.67430      3.80907      0.02074        -0.207731      0.220653     -0.393883
Pb      11.62663     15.47224      4.36621        -0.371808     -0.070564     -0.577571
Pb      11.59795     15.51255      0.00746         0.220994      0.162583      0.237771
Pb      11.64714      3.91989      8.72998        -0.187753     -0.111943     -0.403334
Pb      11.74500      0.01011      8.73604        -0.690829      0.039291     -0.025351
Pb      11.76369      3.91799     13.13034        -0.032624     -0.202674     -0.372301
Pb      11.64142      0.01488     13.11997         0.096073     -0.124761      0.088104
Pb      11.67038      7.74679      4.32805         0.020003     -0.502967      0.392461
Pb      11.63895      7.72296     17.56899         0.121161      0.024341     -0.165221
Pb      11.64762      7.79469      8.74691        -0.002622      0.308149     -0.480985
Pb      11.67516      7.75691     13.11249        -0.052357      0.177803      0.121269
Pb      11.68704     11.48391      4.29318        -0.139956      0.542421     -0.111093
Pb      11.64123     11.65818     17.52301         0.293621      0.013537      0.042007
Pb      11.67735     11.75875      8.84048         0.203091     -0.295113     -0.776311
Pb      11.61886     11.70066     13.19887         0.404141     -0.197141     -0.418562
Ti       2.07104      1.97512      2.44814        -1.544821     -0.475390     -0.924726
Ti       1.95170      1.90373     15.61225         0.398545     -0.021582      1.168120
Ti       1.94516     13.61000      2.26367         0.009869      0.351773      1.269765
Ti       2.05208     13.60730     15.56627        -0.360990      0.812357      1.282354
Ti      13.67253      1.92600      2.29691         0.523163     -0.895559      1.696025
Ti      13.63997      1.97281     15.73231         0.296296     -0.625436      1.988965
Ti      13.65282     13.58330      2.35049        -0.182560      0.534959      0.945487
Ti      13.72268     13.70705     15.53565        -0.277586     -1.340017      2.615615
Ti       1.90597      1.97002      6.76988         0.061545     -0.295034      0.363768
Ti       1.93118     13.71391      6.85815         0.352782     -0.570927      0.487942
Ti      13.55887      1.91519      6.78982         0.967389      0.791459      0.589813
Ti      13.57765     13.60452      6.75347        -0.148854     -0.073264      1.224546
Ti       1.91828      1.90371     11.16395         0.868683      0.291624      0.576767
Ti       1.98775     13.58149     11.14016        -1.149897      0.624727      1.339838
Ti      13.68698      1.92209     11.21134        -0.243769     -0.101662      0.600586
Ti      13.58924     13.64261     11.15345         0.112586      0.199797      0.736484
Ti       2.02849      5.79913      2.24224        -0.549433      0.163856      2.338823
Ti       1.93213      5.78694     15.53261         0.400902     -0.280674      0.891482
Ti      13.65600      5.77900      2.31096         0.223990      0.351020      1.120607
Ti      13.66087      5.80082     15.63203        -0.394774      0.392009     -0.081096
Ti       1.83895      5.80652      6.81139         1.130110      1.113714      1.258980
Ti      13.67068      5.84182      6.83986        -0.654013     -0.195828      0.683349
Ti       2.04499      5.84021     11.17730         0.100293     -1.186603      0.431382
Ti      13.66896      5.90725     11.23157         0.324873     -0.906288     -0.618296
Ti       1.97451      9.70274      2.39021        -0.093097     -0.108120      0.067439
Ti       1.96378      9.71346     15.54053        -0.177272      0.104163      0.518704
Ti      13.70446      9.62627      2.50158        -0.516431      0.894897     -0.608504
Ti      13.65672      9.70108     15.65358         0.459740      0.520498      0.183934
Ti       2.02478      9.78727      6.83971        -1.177125     -0.745507      2.964978
Ti      13.73957      9.69388      6.76256        -0.936165      0.192162      1.796506
Ti       1.97443      9.70541     11.27060        -0.075496     -0.057766     -0.060579
Ti      13.71996      9.69299     11.23596        -0.826690      0.842760      0.454717
Ti       5.86046      1.83193      2.42049        -0.116178      0.454012      0.808439
Ti       5.82592      1.89332     15.59769        -0.695945      0.201352      1.256164
Ti       5.86098     13.56436      2.25634         0.173645     -0.036953      2.233543
Ti       5.88383     13.62589     15.64483        -0.406806      0.145686      0.150308
Ti       5.78981      1.88601      6.81959        -0.066327      1.086541      1.142109
Ti       5.84322     13.61462      6.82918        -0.203963      0.121709      2.476424
Ti       5.89719      1.95804     11.20695        -1.019386      0.838536     -0.012037
Ti       5.78196     13.71271     11.20164         1.017622     -0.547417     -0.448955
Ti       5.84449      5.73317      2.36416         0.291360      0.416109      1.068252
Ti       5.85092      5.77274     15.59311         0.315743      1.099908      0.848327
Ti       5.78786      5.81113      6.67590         0.363693     -0.001564      1.146786
Ti       5.92038      5.82121     11.09201        -0.826278      0.466036      1.376756
Ti       5.76556      9.64702      2.37455         1.318802      0.116968      0.913119
Ti       5.81958      9.77100     15.61408         0.227009     -0.812060     -0.138560
Ti       5.76530      9.74591      6.81269         0.790032     -0.424436      1.118452
Ti       5.82078      9.77344     11.21793        -0.028035     -0.772257      1.044821
Ti       9.76134      1.96122      2.40870        -0.555615     -0.952101      1.411315
Ti       9.72309      1.84616     15.65391         0.261748      0.954334      0.491307
Ti       9.68008     13.63655      2.33734         0.386133      0.006070      0.904348
Ti       9.82195     13.68962     15.57622        -1.075284     -0.828814      0.596406
Ti       9.67823      1.99899      6.76384         0.111725     -0.213641      2.943147
Ti       9.73445     13.71112      6.79479        -0.031303      0.009347      1.119904
Ti       9.73402      1.89806     11.12248         0.898630      0.342741     -0.222075
Ti       9.70400     13.61186     11.13745         0.684270      0.779782      0.528238
Ti       9.76565      5.79161      2.35111        -0.472387      0.125888      0.921436
Ti       9.76156      5.75841     15.59803        -0.508506      0.517901      1.731745
Ti       9.68971      5.84832      6.84134        -0.224302     -0.510269     -0.183144
Ti       9.70981      5.72893     11.16116         0.469912      0.597194      0.505557
Ti       9.68641      9.67864      2.35207        -0.012594      0.146448      0.886644
Ti       9.76471      9.69849     15.61209        -0.570263      0.027959      1.463687
Ti       9.71826      9.79862      6.83848         0.730261     -0.457782      1.431229
Ti       9.71165      9.70504     11.28248         0.897950     -0.519716      0.201699
O       2.09490      1.91857      0.71297         0.075178     -0.045054     -0.385089
O       2.02567      2.02793     13.90993         0.013623      0.025814     -1.374723
O       2.00595     13.66869      0.56281        -0.062901     -0.106720     -1.251304
O       2.23824     13.59963     13.84679        -0.473953     -0.313844     -0.999005
O      13.72067      1.89454      0.60035        -0.230552      0.416890     -1.722786
O      13.76214      1.83632     14.08582        -0.143288     -0.007386     -2.870911
O      13.81300     13.58646      0.65948        -0.509805     -0.361377     -1.317446
O      13.77381     13.67046     13.84609        -0.285839      0.178538     -1.615676
O       1.84887      1.87045      5.04431         0.415656      0.310256     -1.573387
O       1.94637     13.83212      5.15606        -0.149291     -0.347442     -1.717601
O      13.65646      2.10898      5.10115        -0.227110     -0.407477     -1.943881
O      13.58360     13.80187      5.05497         0.108354     -0.450030     -1.206473
O       1.96799      1.87593      9.43141        -0.068423      0.054935     -0.534087
O       2.02524     13.57152      9.42534        -0.226568      0.395203     -0.826013
O      13.60263      1.92535      9.48632         0.217879      0.118457     -0.446844
O      13.53812     13.62070      9.42296         0.290745     -0.049530     -0.865327
O       1.99269      5.74248      0.56121         0.054980      0.416463     -2.324490
O       1.99448      5.66448     13.80290        -0.123741      0.430941     -0.542791
O      13.48499      5.79151      0.61934         0.164301      0.040845     -1.634891
O      13.64053      5.76122     13.88183         0.055847     -0.047014     -0.111993
O       1.80853      5.80041      5.12140        -0.046853     -0.090775     -1.727731
O      13.73728      5.83778      5.15078         0.160047     -0.142868     -2.136111
O       2.04495      5.74762      9.44064        -0.187916      0.352706     -0.806313
O      13.78010      5.86668      9.47138        -0.404610     -0.138865      0.008470
O       1.88396      9.65289      0.67160         0.272307     -0.070821     -0.276065
O       1.90759      9.83925     13.81111         0.232140     -0.291667     -0.445261
O      13.68983      9.83705      0.80585         0.110631     -0.570841     -1.089249
O      13.74572      9.83454     13.96447        -0.382327     -0.345441     -1.732509
O       2.23897      9.91991      5.21027        -0.036712     -0.260065     -3.531777
O      13.61915      9.64288      5.08603         0.223237      0.162415     -2.777711
O       1.93612      9.65364      9.56714         0.122290     -0.125715     -1.327390
O      13.66009      9.73206      9.53114         0.179829     -0.014372     -1.091958
O       5.81051      1.93760      0.75004         0.039736     -0.221271     -2.680406
O       5.77847      1.90128     13.88920         0.329383      0.329493     -1.697630
O       5.83462     13.57217      0.57221         0.140616     -0.033035     -1.926614
O       5.78557     13.60654     13.90109         0.024562      0.036298     -0.730498
O       5.88554      2.06666      5.13206         0.238846     -0.656742     -2.407431
O       5.88280     13.64755      5.18133        -0.065198      0.150946     -3.659831
O       5.92074      1.87657      9.48685        -0.272652     -0.038835     -1.074235
O       5.94082     13.62409      9.47483        -0.492896      0.365180     -0.340400
O       5.83013      5.72167      0.64255        -0.085455      0.461349     -1.900074
O       5.95804      5.79016     13.89008        -0.128325     -0.216733     -1.423475
O       5.79539      5.86943      4.94847        -0.072575     -0.250982     -1.396821
O       5.92977      5.94245      9.37109        -0.032081     -0.381761     -0.987079
O       5.85877      9.60413      0.65823        -0.235893      0.165241     -1.219707
O       5.79470      9.62041     13.88817         0.245340      0.373471     -0.685483
O       5.72358      9.69632      5.10441        -0.130284      0.442903     -1.158904
O       5.90332      9.63550      9.53614        -0.057642      0.358473     -1.741772
O       9.82386      1.84724      0.72389        -0.321076      0.281491     -2.257334
O       9.78363      1.83508     13.93637        -0.233092      0.129962     -0.970699
O       9.69523     13.66658      0.61857         0.101688      0.032206     -0.961412
O       9.84684     13.71627     13.84612        -0.404382     -0.085451     -0.704907
O       9.70943      2.08032      5.09170        -0.199217     -0.098314     -2.746885
O       9.72654     13.67566      5.10088         0.186913      0.053709     -1.702745
O       9.80814      1.89270      9.38733         0.037690      0.095733      0.023231
O       9.83299     13.71700      9.41359        -0.398925     -0.512587     -0.258043
O       9.77850      5.82007      0.61640         0.181289      0.081102     -0.992199
O       9.71435      5.69508     13.89830        -0.015566     -0.360906     -1.793112
O       9.79581      5.83334      5.11547        -0.326090      0.169905     -0.854922
O       9.65883      5.79840      9.45947         0.112552      0.039588     -1.286372
O       9.67104      9.56258      0.65230         0.222678     -0.018774     -1.651312
O       9.84261      9.67520     13.92667         0.044955      0.453654     -2.290056
O       9.59113      9.75443      5.16953         0.120970     -0.221449     -2.490028
O       9.85599      9.56556      9.58520        -0.481462      0.524952     -1.043038
O       3.92591      1.90569      2.88344         0.236988     -0.231457      0.544054
O       3.87809      1.93780     16.02881         0.789741      0.446776      0.268777
O       3.88579     13.63457      2.71362         0.393838     -0.190754      0.137741
O       3.88987     13.47985     16.16321         0.766679      0.919940     -0.528758
O       0.02341      1.95027      2.79112        -0.439611      0.261892      0.214820
O       0.10012      1.86851     16.07826        -1.061505     -0.193917      0.316228
O       0.02917     13.60985      2.76970        -0.516788     -0.050574      0.401280
O       0.01753     13.66948     16.00894         0.274288     -0.011045     -0.509328
O       3.87501      1.92527      6.98925         0.077600     -0.562970      1.059220
O       3.86144     13.59596      7.18509         0.097259      0.545867      0.674897
O       0.01974      1.82922      7.00635        -0.504947      0.210080      1.231450
O      15.54744     13.64704      7.25271        -0.040187     -0.148566     -0.088366
O       3.94932      2.00859     11.62212        -0.152913     -0.364797      0.192786
O       3.86335     13.71229     11.56934         0.512798     -0.376037     -0.108409
O       0.06030      1.84573     11.69751        -0.760736      0.292322     -0.289246
O      15.54869     13.65204     11.63172         1.248696      0.208994     -0.319486
O       3.90645      5.89254      2.63410        -0.068519     -0.487374      0.638725
O       3.83748      5.85784     15.99498         0.635318     -0.186041      0.009858
O       0.04526      5.79379      2.52813        -0.608320      0.114907      0.743598
O       0.00502      5.85547     16.02179        -0.505697     -0.086786     -0.002111
O       3.86796      5.86930      7.12865         0.137488     -0.102932      0.391538
O      15.56757      5.88153      7.31373         0.491055     -0.546844      0.286645
O       4.00682      5.74070     11.49550        -0.582038      0.756309      0.454880
O       0.00062      5.80159     11.50413         0.255924      0.531480      0.764931
O       3.91815      9.78370      2.87189        -0.693459      0.157145     -0.249959
O       3.88267      9.78241     15.88954         0.103476     -0.378969      0.715871
O       0.06818      9.78540      2.93447        -0.243016     -0.561183      0.097672
O       0.01074      9.71323     15.96656         0.257158     -0.128712      0.604133
O       3.90948      9.67318      7.41841         0.274379      0.623360     -0.264259
O       0.01943      9.76188      7.14537         0.154118      0.203144      0.287003
O       3.92762      9.62742     11.58304        -0.131497      0.188377      0.519654
O       0.03624      9.65623     11.62655        -0.599125      0.087398      0.429617
O       7.74697      1.93640      2.79043         0.317001     -0.183488      0.561960
O       7.79613      1.90944     15.88708        -0.196670     -0.064874      0.702891
O       7.81812     13.66301      2.79129        -0.639643     -0.346688      0.203985
O       7.75070     13.67979     15.99455         0.482217      0.073857      0.119351
O       7.77765      1.98646      7.25865        -0.225828     -0.412916      0.024790
O       7.80866     13.65413      7.12866         0.082483     -0.202210      0.827883
O       7.84062      1.93141     11.49710         0.069417      0.025955      0.904441
O       7.79489     13.63411     11.55878         0.065593      0.090387      0.398800
O       7.80135      5.88250      2.59542        -0.198775      0.118186      0.745366
O       7.74510      5.76704     15.98506         0.821584      0.141078      0.532322
O       7.73613      5.70442      7.12224        -0.289639      0.335135      0.309599
O       7.82746      5.78677     11.59985         0.211716     -0.181382      0.417833
O       7.80631      9.66373      2.76169        -0.446372     -0.260865      0.562142
O       7.76614      9.71634     15.99836         0.270911      0.061847      0.292075
O       7.70291      9.84236      7.19138         0.417129     -0.070013      0.610412
O       7.79653      9.71453     11.64137         0.417191      0.398114      0.311941
O      11.64469      1.89266      2.71776         0.940315      0.442085      0.544871
O      11.68085      1.84134     16.05249         0.088712      0.562895      0.373592
O      11.69563     13.65696      2.78015        -0.010454     -0.115838      0.057869
O      11.64447     13.57608     15.98378         0.947647      0.142263      0.182307
O      11.68798      1.97492      7.11547        -0.183520      0.183352      0.495852
O      11.65989     13.70979      7.23195         0.889949     -0.436755      0.016631
O      11.69186      1.84190     11.72488         0.655805      0.911340     -0.363248
O      11.71002     13.67573     11.52879        -0.594691     -0.374232      0.525343
O      11.70110      5.84418      2.77114         0.089188     -0.310580      0.206719
O      11.65521      5.77564     15.98787         0.616876      0.008581      0.243321
O      11.74226      5.95854      7.12930        -0.375811     -0.734606      0.899005
O      11.72183      5.75257     11.48322         0.284532     -0.013565      0.733530
O      11.68526      9.64764      2.77844        -0.139372      0.092347      0.472973
O      11.71830      9.73404     16.09080        -0.268855      0.194711      0.146302
O      11.70161      9.71108      7.06086        -0.590014     -0.489779      0.955949
O      11.77248      9.76837     11.58310        -0.639799      0.030195      1.008821
O       2.03089      3.89629      2.73720         0.036109      0.038127      0.529615
O       1.83965      3.91513     16.03454         0.497894     -0.092354      0.003841
O       1.93080     15.55688      2.73802         0.305720     -0.097858      0.599562
O       2.11676     15.52530     15.89613        -0.203940     -0.046897      0.343149
O      13.60101      3.86536      2.73325         0.113894      0.068394      0.205434
O      13.75095      3.85042     16.08571        -0.610631      0.520326     -0.003246
O      13.70858      0.00143      2.53135        -0.209827     -0.317838      1.066640
O      13.61459     15.51815     16.18641        -0.157721      0.277355     -0.586065
O       2.00539      3.89122      7.21255        -0.578292     -0.230950      0.246707
O       1.96183     15.59909      7.17796         0.039732     -0.078726      0.870288
O      13.73744      3.84975      7.17989        -0.261603      0.455382      0.849006
O      13.64537     15.58303      7.18318        -0.224026     -0.172204      0.183971
O       1.99748      3.93600     11.51743        -0.420167     -0.842047      0.517889
O       2.02134      0.01688     11.65530        -0.173303     -0.678768     -0.252830
O      13.81186      3.84515     11.67471        -1.121645     -0.188016     -0.165543
O      13.59761      0.00044     11.63364         0.638222     -0.047659      0.160696
O       2.01564      7.76215      2.81977        -0.362801      0.444708      0.014518
O       1.90426      7.76816     15.89648         0.200371      0.175949      0.140228
O      13.65540      7.70800      2.79845         0.396996      0.155537      0.195188
O      13.63006      7.74079     15.98930        -0.038597     -0.127156      0.402543
O       1.93975      7.77801      7.20957        -0.051758      0.161309      0.184343
O      13.73788      7.79704      7.22150        -0.193628      0.042649      0.382093
O       1.94372      7.72771     11.71848         0.379976     -0.093532      0.043322
O      13.57582      7.77888     11.63524         0.564455     -0.125890      0.188618
O       1.89601     11.71116      2.72098         0.470413     -0.366547      0.437681
O       2.03113     11.67782     16.10287        -0.782248     -0.314381     -0.524829
O      13.59359     11.62898      2.83784         0.379218      0.454542      0.619593
O      13.75447     11.69359     15.93359        -0.664956      0.428112      0.551567
O       1.95473     11.69015      7.23033        -0.030451      0.472811      0.697499
O      13.56426     11.65001      7.20560         0.334784      0.840513      0.059144
O       2.01779     11.61269     11.43171         0.047587      1.751723      0.768199
O      13.69946     11.76043     11.64449        -0.254693     -0.756698      0.045558
O       5.82737      3.85292      2.62671        -0.157107      0.128936      1.194339
O       5.88167      3.90437     16.06301        -0.325052     -0.847615     -0.097600
O       5.91277     15.47999      2.63892        -0.304955      0.249604      0.747926
O       5.82562      0.01921     15.98701        -0.154125     -0.530415      0.392688
O       5.71285      3.86376      7.08082         0.390253      0.251145      0.979429
O       5.88765     15.56145      7.27220        -0.349130      0.284802      0.076615
O       5.88936      3.90695     11.44895         0.538996     -0.422124      0.647926
O       5.90398      0.02615     11.57291        -0.150315     -0.525437      0.419297
O       5.70277      7.78508      2.76196         0.535442      0.006663      0.279405
O       5.89608      7.75712     16.01484        -0.604014      0.025126      0.492209
O       5.91101      7.74435      7.05527        -0.269998      0.752476      0.651548
O       5.89962      7.78263     11.55985         0.115557     -0.437822      0.663733
O       5.95894     11.65941      2.87536        -0.682956      0.113392     -0.448301
O       5.90611     11.70176     15.99128        -0.277663     -0.367923      0.142616
O       5.78102     11.75939      7.26807         0.156291     -1.180245      0.241343
O       5.80622     11.74489     11.52024         0.107128     -0.095924      0.678541
O       9.64198      3.88726      2.81888         0.566186     -0.023170     -0.151655
O       9.69556      3.89378     16.14211         0.309507     -0.881767     -0.202713
O       9.69250     15.57729      2.81073         0.162288      0.028918      0.442721
O       9.74282     15.56406     16.15404        -0.178068      0.018442     -0.379905
O       9.64473      3.91164      7.23844         0.988667     -0.217388      0.487994
O       9.82319      0.02829      7.14061        -0.514413      0.181628      0.183060
O       9.88572      3.82445     11.47003        -0.569112      0.117713      0.827683
O       9.77864     15.59808     11.52988        -0.434191     -0.659118      0.557941
O       9.76299      7.70290      2.92738        -0.143989      0.467615     -0.348288
O       9.70694      7.81957     15.85773         0.254101     -1.231148      0.950386
O       9.61781      7.70385      7.30641         0.217763      1.265440      0.050923
O       9.83452      7.70330     11.67484        -0.436379      0.530238      0.127793
O       9.68396     11.62795      2.63874         0.379302      0.033039      0.646020
O       9.65211     11.69132     16.01213         0.527367      0.212350      0.049731
O       9.82199     11.69911      7.17405        -0.395543      0.081605      0.737806
O       9.78827     11.70656     11.67236        -0.333646     -0.171717     -0.178094
