  # total energy = -7867.47624840 
CRSYTAL
PRIMVEC
    15.010000000000000    0.0000000000000000    0.0000000000000000
     0.0000000000000000   15.010000000000000    0.0000000000000000
     0.0000000000000000    0.0000000000000000    16.400000000000000
PRESSURE
18.5473 18.676 8.38695 -0.030711 0.039974 0.070843
PRIMCOORD
320 1
Pb       3.66529      3.83439      4.03727         0.382055     -0.548982      0.748546
Pb       3.82151      3.67468      0.07871         0.194788      0.008257     -0.211665
Pb       3.69274     15.00835      4.05976         0.034547      0.191061      0.432705
Pb       3.60694     14.97768      0.03122         1.029444      0.160494     -0.632540
Pb       0.02905      3.66835      4.04276        -0.487761      0.258207      0.577352
Pb       0.09210      3.78750      0.05482        -0.937921     -0.204519     -0.361578
Pb       0.08579     14.97250      3.97046        -0.536895     -0.241969      0.760565
Pb      14.93732     14.99437      0.02021        -0.312026     -0.016150     -0.223874
Pb       3.92254      3.72358      8.22906        -0.709611      0.236169     -0.072932
Pb       3.76129     14.91603      8.24781         0.010495      0.463585     -0.094320
Pb       0.08670      3.70141      8.20217        -0.924119      0.015531     -0.423930
Pb       0.08722      0.04429      8.28158        -0.704415     -0.176790     -0.953031
Pb       3.67915      3.79967     12.32508         0.403910     -0.225605     -0.055148
Pb       3.81275      0.02870     12.26720        -0.621626     -0.041073      0.401467
Pb      14.97158      3.63242     12.30565         0.377121      0.521437      0.371732
Pb      14.93933     14.98957     12.34755         0.264647      0.132790     -0.257817
Pb       3.64726      7.47878      4.00822         0.326278      0.437564      0.760605
Pb       3.69833      7.40620      0.01160         0.253495      0.024188     -0.056741
Pb      14.90346      7.41966      4.08083         0.103552      0.580046      0.402185
Pb       0.02993      7.49567      0.01184        -0.561094     -0.394113     -0.426952
Pb       3.68791      7.44369      8.20586         0.182115      0.224537     -0.069418
Pb      14.93509      7.43251      8.19100         0.144258      0.452054      0.521665
Pb       3.80121      7.56999     12.30435        -0.283115     -0.093413     -0.119863
Pb       0.11961      7.48663     12.37555        -0.402825     -0.158106     -0.157211
Pb       3.68477     11.35486      4.00331        -0.184621     -0.720122      0.674973
Pb       3.72272     11.26585      0.03484         0.234995      0.107402     -0.579888
Pb      14.92714     11.32343      4.09548         0.364253     -0.474786      0.326385
Pb      14.96087     11.15424     16.36817         0.103981      0.659389      0.387711
Pb       3.75513     11.19902      8.21963        -0.277142     -0.144776     -0.075248
Pb      14.90327     11.22837      8.33615         0.193019     -0.280321     -0.629748
Pb       3.75838     11.30588     12.32448         0.381934     -0.652230      0.615603
Pb      15.00274     11.21578     12.29935        -0.277350     -0.193988     -0.126921
Pb       7.50390      3.60290      4.11349        -0.140633      0.813519      0.565009
Pb       7.47007      3.79124     16.35870        -0.393673     -0.209974      0.218170
Pb       7.43417      0.00341      4.01086         0.122194     -0.410085      1.063910
Pb       7.47821      0.03591      0.07136        -0.216212      0.162648     -0.720429
Pb       7.54870      3.79571      8.29153        -0.216758     -0.012221     -0.383385
Pb       7.54559     14.83436      8.28425        -0.572515      0.624063     -0.341417
Pb       7.56620      3.64714     12.24448        -0.456753      0.269319      0.289514
Pb       7.50077     14.99247     12.34171         0.624022     -0.289773      0.215823
Pb       7.44487      7.51945      4.05514        -0.092466      0.284774      0.309665
Pb       7.45774      7.54231      0.09768         0.403562     -0.342369      0.158245
Pb       7.45183      7.60105      8.25280         0.269233     -0.620518     -0.651582
Pb       7.49599      7.33320     12.28694         0.055036      0.806726      0.430918
Pb       7.45089     11.34029      4.05656        -0.554013     -0.848464      0.843783
Pb       7.52817     11.23011      0.08413         0.034146     -0.040888     -0.721370
Pb       7.46220     11.22000      8.33160        -0.028930     -0.012217     -0.850880
Pb       7.50367     11.16046     12.42646        -0.145045      0.062012      0.071132
Pb      11.32561      3.70427      4.05723        -0.211303      0.365519      0.162402
Pb      11.13706      3.69012     16.37441         0.883630      0.440392      0.425471
Pb      11.22708      0.04065      4.09540         0.289104     -0.252037      0.158441
Pb      11.09320     14.91121      0.04357         0.530059      0.707014      0.238480
Pb      11.19658      3.76387      8.14483         0.373905      0.169027      0.354681
Pb      11.26806     14.98594      8.23354         0.385767      0.119708     -0.250877
Pb      11.31839      3.72238     12.36549        -0.168968      0.354904     -0.384837
Pb      11.24026     14.99258     12.24168        -0.469333      0.048086      0.210202
Pb      11.06660      7.42382      4.09127         0.726730      0.348282      0.065147
Pb      11.21135      7.52319     16.36194         0.161022     -0.136851      0.469229
Pb      11.16808      7.51426      8.25948        -0.017737     -0.233238      0.030713
Pb      11.29707      7.52505     12.34440         0.501294     -0.264144      0.333511
Pb      11.24497     11.29756      4.15715         0.328867     -0.764368      0.460653
Pb      11.22374     11.28678      0.09493        -0.166136     -0.395909     -0.723797
Pb      11.16055     11.15514      8.19971         0.430741     -0.033282      0.170888
Pb      11.26330     11.28358     12.32884         0.028481     -0.175159     -0.194154
Ti       1.90170      1.86719      1.99580        -0.194965      0.341612      0.907236
Ti       1.86542      1.91376     14.47664         0.114315     -0.297183     -0.879480
Ti       1.87352     13.09469      2.03629        -0.805379     -0.589460      0.519175
Ti       1.84003     13.12498     14.45240         0.966841      0.412764     -0.384597
Ti      13.10910      1.85591      2.10668         0.260615     -0.166328     -0.762155
Ti      13.10109      1.92320     14.45698         0.402071     -0.226822      0.687732
Ti      13.01733     13.04916      2.06405         0.913895      1.984531     -0.262851
Ti      13.10935     13.14647     14.45019        -0.191265      0.378854      0.255983
Ti       1.88911      1.90225      6.17642        -0.264896     -1.206558      0.226094
Ti       1.80895     13.09283      6.25760        -0.976061      0.786321     -0.619205
Ti      13.08778      1.87270      6.18373         0.465019     -0.208193      0.554853
Ti      13.04014     13.07651      6.25811         0.780856      1.093300     -0.343680
Ti       1.91825      1.85413     10.25640        -0.507764     -0.536115      0.276420
Ti       1.88287     13.07344     10.33437        -0.184167      0.222464     -0.941453
Ti      13.12523      1.88129     10.33073        -0.898895      0.118201     -1.720735
Ti      13.15863     13.11767     10.27839        -0.613011     -0.208002     -0.386154
Ti       1.82448      5.60342      2.11394         0.687885      0.067058     -0.154601
Ti       1.91942      5.60927     14.49981        -1.111586     -0.486745     -1.604191
Ti      13.15003      5.62160      2.03394        -0.517673     -0.610149     -0.298257
Ti      13.12067      5.61481     14.54299         0.345239      1.117916     -1.480314
Ti       1.80923      5.63742      6.26883         0.283505      0.062141     -0.441886
Ti      13.01174      5.65040      6.21071         1.253442     -0.906232      1.128393
Ti       1.89265      5.54627     10.33067         0.198047      1.323288     -0.301719
Ti      13.17984      5.62163     10.34861        -1.413941     -0.053419      0.014569
Ti       1.81355      9.34129      2.04126        -0.179199      0.763581      0.910391
Ti       1.88586      9.41638     14.40787         0.327980     -1.266385     -0.435996
Ti      13.13115      9.35377      2.12176        -0.616425     -0.285421      0.494144
Ti      13.15332      9.42020     14.52521        -1.365140     -1.908157     -1.746190
Ti       1.83382      9.38017      6.25362         0.081714      0.258234     -0.122704
Ti      13.11507      9.32116      6.23346        -0.041561      0.650058     -1.565632
Ti       1.87829      9.35030     10.30187         0.108245     -1.099960      0.323662
Ti      13.10679      9.32559     10.41872         0.337834      0.595111     -0.498582
Ti       5.65394      1.87132      2.17955        -1.650659      0.743564     -1.610058
Ti       5.60562      1.87179     14.41295         0.571674     -0.601303      0.059181
Ti       5.62863     13.15220      2.02032        -1.076952      0.610991     -0.313190
Ti       5.64481     13.10235     14.44115        -0.297337      0.156153     -0.008481
Ti       5.58696      1.83906      6.26459         0.086886     -0.220617      0.007689
Ti       5.53078     13.13060      6.23952         0.513787      0.110686      0.796852
Ti       5.59303      1.80067     10.33115         0.517425      1.697787     -1.155120
Ti       5.66456     13.06679     10.38672        -0.467828     -0.430200     -0.777958
Ti       5.62097      5.66471      2.16630         0.420286     -0.474505      0.184262
Ti       5.61424      5.60775     14.39989         0.471306     -0.641623      0.412719
Ti       5.59759      5.62611      6.17874        -0.008793      0.711084      0.160294
Ti       5.66973      5.63474     10.29779        -0.330750     -1.097081     -0.201645
Ti       5.55234      9.45609      2.07852         0.776631     -0.605942      1.405375
Ti       5.64036      9.28703     14.56030        -0.411873      1.101090     -2.092459
Ti       5.62565      9.40903      6.13234        -0.613851     -0.837564     -1.166880
Ti       5.64162      9.36606     10.37501        -0.271809     -0.106545      1.583931
Ti       9.33344      1.89891      2.11660         1.244870     -0.670755     -0.621038
Ti       9.36492      1.88956     14.47898        -0.372838     -1.043475     -0.696221
Ti       9.31256     13.06798      2.18339         0.617716      1.452905     -0.590376
Ti       9.35590     13.11297     14.50887         0.760759      0.223026     -1.497330
Ti       9.31646      1.82572      6.27232        -0.278295      0.831672      0.264819
Ti       9.26696     13.09992      6.19728         0.475625      0.069922     -0.107016
Ti       9.28588      1.84068     10.28490         1.574417     -0.306913      0.536711
Ti       9.39181     13.04093     10.26712         0.269893      0.614701      0.898571
Ti       9.35320      5.63162      2.09968         0.645943      0.215518      0.249863
Ti       9.36051      5.66826     14.44929         0.423727     -0.689904     -0.570506
Ti       9.26966      5.59764      6.17320         0.987734      0.826957     -0.014475
Ti       9.47215      5.61783     10.43811         0.542752     -0.104163     -1.336103
Ti       9.32790      9.43500      2.10096        -0.132507     -2.219136     -0.228300
Ti       9.35667      9.34985     14.39509         0.487251      0.755888      0.406901
Ti       9.36549      9.38869      6.19092        -0.378138     -0.770439      0.383119
Ti       9.36359      9.34873     10.40077         0.876419     -0.642829     -0.990958
O       1.79082      1.83841      0.21188         0.041871     -0.041975      0.298611
O       1.98804      1.93513     12.64288        -0.412545     -0.428481      0.156961
O       1.93527     13.11163      0.23413        -0.349111     -0.268969      0.649591
O       1.91288     13.10473     12.62088        -0.296332      0.100505     -0.106848
O      13.23743      1.86143      0.27404        -0.115789     -0.127284      0.309434
O      13.21425      1.91130     12.64424        -0.501849     -0.188787     -0.712779
O      13.05757     13.10583      0.22757         0.065311     -0.212309      0.339005
O      13.14320     13.18467     12.64114        -0.025541     -0.388759     -0.568335
O       2.03172      1.87560      4.35699        -0.483422     -0.126229      0.192503
O       1.97417     13.10692      4.32016        -0.576638     -0.018242      0.512359
O      13.07544      1.85063      4.31887         0.064783     -0.243730      0.279457
O      13.04427     13.18746      4.39098         0.006846     -0.294457      0.397794
O       1.88216      1.91138      8.44250        -0.094247     -0.323263      0.402332
O       1.79529     13.14072      8.45522         0.281151      0.030961      0.961844
O      13.08369      1.90423      8.46353         0.131800     -0.109008      1.771509
O      13.15320     13.12056      8.46355        -0.048349     -0.294406     -0.009851
O       1.87828      5.56004      0.28713         0.195375      0.490775      0.627719
O       1.90160      5.52219     12.62592        -0.127923      0.297180      0.244810
O      13.22112      5.51690      0.25030        -0.205159      0.399167      0.325783
O      12.97959      5.60121     12.66963         0.637778      0.249903      0.061153
O       1.91970      5.60098      4.40306        -0.568206      0.386530      0.346114
O      13.16861      5.53797      4.45373        -0.022219      0.469831     -1.248006
O       1.92703      5.65127      8.50506        -0.384123     -0.413059      0.254423
O      13.01897      5.70295      8.56922         0.263164     -0.452838     -0.519787
O       1.76405      9.32804      0.24701         0.211396      0.172757     -0.186243
O       1.86382      9.32618     12.57366        -0.049154      0.070168      0.699628
O      13.21019      9.38585      0.27859        -0.069058      0.264809      0.474960
O      13.08687      9.35113     12.61712         0.091686      0.103169      0.571435
O       1.77026      9.46138      4.47327         0.398870     -0.371199     -0.387612
O      13.09657      9.29648      4.33321        -0.109552      0.226828      0.652810
O       1.90977      9.34736      8.53844        -0.162968      0.244242     -1.029574
O      13.09698      9.45183      8.60793         0.173448      0.007554     -0.752698
O       5.72367      1.87884      0.31550        -0.246906      0.023446      0.816830
O       5.72630      1.89629     12.58968        -0.541759     -0.513457     -0.021204
O       5.65221     13.12018      0.23555        -0.075279     -0.123472     -0.164035
O       5.61316     13.08506     12.58786         0.082334      0.576933      0.385018
O       5.46248      1.78078      4.40674         0.765006      0.032591      0.132566
O       5.44597     13.12911      4.44910         0.525837      0.342094     -0.517999
O       5.58036      1.98111      8.46458         0.049691     -0.481664      1.582799
O       5.61987     12.98003      8.52270        -0.145340      0.199619      1.032289
O       5.42444      5.44843      0.40883         0.610024      0.557660     -0.910836
O       5.69375      5.63298     12.62820        -0.117305      0.047879     -0.488051
O       5.66341      5.66063      4.34958        -0.070710      0.032633      0.216573
O       5.64651      5.68005      8.47946        -0.148217     -0.465221      0.328976
O       5.74519      9.46584      0.28861        -0.655733      0.031367     -0.438711
O       5.68087      9.29528     12.67263        -0.215688     -0.351851      0.791764
O       5.72999      9.41545      4.25167        -0.744525      0.001306      1.629935
O       5.67750      9.34517      8.62377         0.040897      0.472425     -1.181704
O       9.35363      1.80775      0.29634        -0.308391      0.496838      0.757228
O       9.38381      1.87060     12.66573        -0.262559     -0.344067     -0.015336
O       9.42582     13.09271      0.33619        -0.269468     -0.237732      0.708213
O       9.48041     13.14233     12.67378        -0.081881     -0.224267     -0.306197
O       9.42681      1.85911      4.46690        -0.702825      0.115229     -0.753336
O       9.26398     13.10303      4.34833         0.181359     -0.043795      0.122330
O       9.30537      1.86150      8.50526         0.044911     -0.156399     -0.641865
O       9.37107     13.09501      8.47922        -0.491151     -0.027362     -0.309690
O       9.35772      5.74678      0.32256         0.088694     -0.662854     -0.432344
O       9.41340      5.67273     12.57681        -0.004434     -0.376685      1.210332
O       9.42774      5.54319      4.35805        -0.377607      0.199705     -0.162482
O       9.52780      5.71578      8.58645        -0.589096     -0.380386     -0.182378
O       9.21221      9.31533      0.27840         0.443746      0.407594      0.410553
O       9.41156      9.38733     12.58750         0.241388     -0.030836      0.504650
O       9.40847      9.52337      4.41067        -0.222125     -0.518598     -0.675876
O       9.25175      9.31252      8.51794         0.326752      0.273918      0.382450
O       3.74848      2.01191      2.23649        -0.121342     -0.241669      0.155318
O       3.75784      1.84916     14.73751        -0.304688     -0.426572      0.147190
O       3.76056     12.88111      2.23238        -0.824453      1.030726      0.037740
O       3.76332     13.02963     14.81324        -0.512430      0.774035     -0.359669
O       0.06588      1.87739      2.51386        -1.022978     -1.083175     -0.645236
O      15.00673      2.01685     14.62379        -0.130600     -0.161593      0.176657
O      14.93468     13.16129      2.28328         1.093853      0.296209      0.207702
O       0.03160     12.97498     14.79034        -0.900858      0.410987     -0.336286
O       3.72683      1.70665      6.56621        -0.103412      0.195861     -0.049658
O       3.65844     13.30002      6.56370         0.791654     -0.845677     -0.237420
O      14.93213      1.92428      6.53082         1.358675      0.034153     -0.395302
O      14.91668     13.16677      6.42896         0.349851     -0.278649     -0.043149
O       3.75282      1.90038     10.61418         0.610545      0.146067      0.185986
O       3.78302     12.86713     10.61928        -0.712637      0.524030     -0.373135
O       0.04673      1.79798     10.58377        -0.232663     -0.380865      0.117205
O       0.00896     13.30608     10.52899         0.487862     -0.552301      0.559876
O       3.73030      5.60715      2.46100        -0.262974     -0.018316     -0.188061
O       3.78146      5.67477     14.68488        -0.528546      0.000901      0.192605
O      15.00956      5.63713      2.37058         0.633457      0.318992      0.406759
O      14.98183      5.56892     14.72615         0.871008     -0.257454     -0.105020
O       3.69920      5.65855      6.50592         0.659303      0.290735     -0.143952
O      14.95196      5.68558      6.62106         0.551324     -0.642824     -0.364317
O       3.77802      5.45246     10.60034         0.216491      0.220003     -0.004561
O      15.00091      5.78580     10.57089         1.360431     -0.386356      0.299595
O       3.68917      9.44023      2.42308         0.543419      0.083675     -0.457288
O       3.72559      9.13365     14.72554        -0.293751      0.596571      0.162809
O      14.98698      9.31418      2.48911        -0.214938      0.044218     -0.504309
O      14.98342      9.35723     14.59170         0.921625      0.123577      0.415958
O       3.75592      9.30189      6.60848        -0.040975      0.679013     -0.485896
O      14.92714      9.39144      6.49713         0.940891      0.094060      0.457573
O       3.79513      9.50399     10.70200        -0.073053      0.083032     -0.312345
O       0.01481      9.23160     10.60182        -0.385436     -0.013189      0.424192
O       7.47938      1.71220      2.44744         1.053906      0.345858      0.225874
O       7.51406      1.84492     14.77984        -0.508623      0.426875     -0.228085
O       7.42168     13.29932      2.35333         1.408522     -0.116560      0.428623
O       7.54958     13.09172     14.73775        -2.096718     -0.432912      0.008388
O       7.38926      2.00934      6.64002         1.524461     -0.551170     -0.810401
O       7.43796     13.08228      6.58421         0.040072     -0.230077     -0.278243
O       7.46551      1.67745     10.65444         0.017685      0.294733     -0.103619
O       7.51322     13.18347     10.58257         0.139919     -0.175623      0.114243
O       7.51243      5.84887      2.24070        -0.510192     -0.792014      0.443511
O       7.47612      5.61288     14.79266         0.204324     -0.378210     -0.126342
O       7.47499      5.67008      6.53062        -0.672502     -0.227248      0.033051
O       7.59476      5.72395     10.58353        -1.370091      0.079533      0.020906
O       7.49162      9.25460      2.43582        -0.634109      0.290193     -0.377027
O       7.48507      9.43132     14.71857         0.703807     -0.047287     -0.129329
O       7.42836      9.28223      6.49780         1.160282      0.750763      0.115908
O       7.57594      9.25657     10.78342        -1.516879     -0.214638     -0.563258
O      11.22886      1.94879      2.31893         0.154094      0.436118      0.230127
O      11.21587      1.74604     14.78915         1.013139      0.261136     -0.178797
O      11.16630     12.87355      2.45568        -0.383957      0.256378     -0.491309
O      11.23957     13.23720     14.78256         1.219667     -0.513706     -0.337815
O      11.20407      1.90037      6.45470        -0.814816     -0.112569      0.231528
O      11.13683     13.18471      6.52852         0.386559     -0.295948     -0.199527
O      11.17622      2.04192     10.58864         1.403061     -0.962280      0.087553
O      11.27233     13.03050     10.38946        -0.043243      0.189199      0.933743
O      11.35725      5.52641      2.27294        -2.123872     -0.201650      0.644973
O      11.20336      5.56898     14.83157        -0.360886      0.711277     -0.072866
O      11.24025      5.53533      6.41654        -1.381384      0.481996      0.188991
O      11.30547      5.35032     10.58797        -0.061369      0.144900      0.570372
O      11.17732      9.41957      2.29128         1.182672      0.581793      0.119680
O      11.22768      9.28615     14.78695         0.017538      0.370304     -0.172682
O      11.23906      9.38779      6.48785        -0.820816     -0.038699      0.259064
O      11.23162      9.49614     10.51129         0.654619      0.054832      0.601745
O       1.78217      3.72441      2.45125         0.414191      0.649769     -0.562483
O       1.92298      3.75613     14.86298         0.286853     -0.248878     -0.511326
O       1.91673      0.01133      2.26503         0.279791     -1.084200      0.180157
O       1.81656     14.99142     14.80430        -0.054613      0.013338     -0.537772
O      13.27693      3.71593      2.33246        -0.255178     -0.099306      0.429067
O      13.02122      3.82201     14.71003        -0.148311     -2.995850      0.127502
O      12.85723     14.91718      2.25006         0.714253      1.158004      0.530252
O      13.29287      0.00745     14.54093         0.142635     -0.024216      0.741663
O       1.94549      3.74878      6.47197        -0.439537      0.189346      0.075812
O       1.74480      0.00231      6.37151        -0.123007      0.110755      0.343767
O      13.07667      3.74313      6.57121         0.275339      0.264930     -0.292853
O      13.03661      0.01726      6.62017         0.043860     -0.212867     -0.523121
O       1.91503      3.68320     10.59039        -0.751984      0.600336      0.003862
O       2.06011     14.94678     10.54502         0.014523      0.376938      0.219868
O      13.27715      3.70940     10.66469         0.159148      0.218898     -0.139745
O      13.08379     14.98129     10.54452        -0.353408      1.049493      0.508993
O       1.92568      7.51235      2.36896        -0.222660     -0.789454      0.106993
O       1.76233      7.41625     14.73394         0.091395      1.482133      0.028998
O      13.08576      7.46300      2.31833         0.142683      0.966615      0.262219
O      13.15102      7.48396     14.82117        -0.131764      0.613504     -0.018409
O       1.80431      7.55357      6.54154         0.065708     -1.352145     -0.138956
O      13.12042      7.54258      6.60009        -0.354299     -1.576304     -0.226984
O       2.09525      7.49783     10.51572        -0.171104     -1.193928      0.713648
O      12.98591      7.49223     10.57068        -0.278999     -0.334661      0.547777
O       1.80927     11.18752      2.37780        -0.391005      1.189536     -0.310319
O       1.88349     11.21319     14.71328         0.274760     -0.036868      0.051715
O      13.16821     11.29270      2.37169         0.064566     -2.560819      0.306783
O      13.09129     11.22756     14.68009        -0.247393      0.932202      0.225696
O       1.74859     11.26770      6.59329         0.722479      0.003745     -0.135923
O      13.04608     11.19376      6.44770        -0.067591      1.407099      0.183845
O       1.72887     11.16819     10.50586        -0.154801      2.127935      0.587960
O      13.20584     11.26738     10.67275         0.545968      0.196504      0.139296
O       5.76035      3.74353      2.43914         0.092239      0.194669      0.225104
O       5.51558      3.69243     14.75366         0.647329      1.387463     -0.046570
O       5.55184      0.01771      2.37160        -0.627674     -0.796796      0.230409
O       5.63350      0.00058     14.67520        -0.062224     -0.719962      0.027407
O       5.54892      3.74149      6.48194        -0.201847      0.558776     -0.278435
O       5.73134     14.96278      6.70695        -0.388143      0.280230     -0.563065
O       5.76831      3.73097     10.63853         0.061130     -0.041918     -0.369519
O       5.52606     14.96346     10.49836        -0.228443     -0.507957      0.379764
O       5.60466      7.57503      2.25999        -0.787276     -0.556408      0.201498
O       5.65296      7.43465     14.85164         0.098307      0.015739      0.112866
O       5.67172      7.53391      6.47222        -0.609321     -0.620529     -0.098896
O       5.48963      7.45025     10.61955         0.536373      0.764944      0.097954
O       5.72091     11.35216      2.36173         0.329641     -1.606715      0.051091
O       5.50339     11.20505     14.56981         0.326882      0.054219      0.645752
O       5.59070     11.26227      6.53038        -0.267608     -0.329499     -0.053656
O       5.79318     11.21239     10.80351         0.086619     -0.179264     -0.709280
O       9.25507      3.75109      2.47658        -0.152631     -0.271129     -0.569264
O       9.39649      3.75135     14.77971        -0.315182      0.058542     -0.168336
O       9.52227     15.00306      2.34258        -0.492546     -0.373352      0.309750
O       9.28235     14.95019     14.79180         0.164427      1.309299      0.014000
O       9.23769      3.80713      6.54224         0.503505     -1.585509      0.164027
O       9.21337     14.98694      6.44668         0.065153      0.340147      0.299982
O       9.28470      3.69094     10.62523        -0.734011      0.211935     -0.090838
O       9.42374     14.92660     10.67189         0.269320      0.647201     -0.292393
O       9.42459      7.48944      2.45437         0.338525      0.356304      0.135819
O       9.33747      7.48702     14.75555        -0.135315      0.389979     -0.379056
O       9.39459      7.47117      6.42613         0.134311      0.688311     -0.026809
O       9.64522      7.47848     10.65409        -0.366987      0.311348     -0.100678
O       9.06738     11.21923      2.37535         0.469157      1.224537     -0.309945
O       9.44360     11.24984     14.76863         0.079726     -0.905020      0.025023
O       9.29835     11.23304      6.51398         0.048971      0.304574      0.152406
O       9.41438     11.19676     10.62407        -0.837438      1.064797      0.085991
