  # total energy = -7877.54988785 
CRSYTAL
PRIMVEC
    15.6000000000000000    0.0000000000000000    0.0000000000000000
     0.0000000000000000   15.6000000000000000    0.0000000000000000
     0.0000000000000000    0.0000000000000000    17.640000000000000
PRESSURE
-2.80665 -2.38058 -7.67096 0.182561 -0.386442 0.036946
PRIMCOORD
320 1
Pb       3.76090      3.74933      4.36900         0.498156      0.420303      0.455103
Pb       3.89110      3.92188     17.56531        -0.013631      0.005472      0.818212
Pb       3.88576     15.54462      4.29196        -0.292641     -0.390851      0.568910
Pb       3.80423     15.55533     17.49639        -0.051155      0.091647      1.120813
Pb       0.05474      3.88525      4.36497        -0.489624      0.199838      0.554959
Pb      15.58680      3.96341     17.61910         0.265176     -0.150230      0.282422
Pb      15.52915     15.52560      4.26981         0.445141      0.218312      0.860352
Pb      15.47694      0.04125     17.52147         0.458102     -0.408191      0.519940
Pb       3.81765      3.95177      8.76237         0.282306     -0.134249      0.900939
Pb       3.82197      0.05829      8.68677         0.137648     -0.454725      0.979505
Pb      15.56909      3.92364      8.65197        -0.396093      0.263234      1.972357
Pb       0.01221     15.59173      8.72992        -0.142759     -0.025817      1.115691
Pb       3.92134      3.62640     13.21456        -0.187392      1.038700      0.469925
Pb       3.80521     15.51592     13.13996         0.005234     -0.026137      0.898834
Pb      15.58674      3.76373     13.14212         0.224458      0.553795      0.833312
Pb      15.58964      0.13186     13.10464        -0.092029     -0.580307      0.871942
Pb       3.88335      7.82468      4.38673         0.278943     -0.434831      0.528355
Pb       3.95850      7.81836     17.56335        -0.296054     -0.195870      0.521755
Pb       0.03681      7.99970      4.40852         0.058886     -1.153633      0.286355
Pb       0.04621      7.86659     17.50441         0.137733     -0.296988      0.693070
Pb       3.91188      7.91535      8.82562         0.170247     -0.392686      0.541596
Pb      15.55919      7.81419      8.82735        -0.003102     -0.254097      1.053432
Pb       3.90759      7.79050     13.08977         0.000094     -0.378784      1.106230
Pb       0.07443      7.90171     13.15433        -0.029799     -0.843129      0.666513
Pb       3.91263     11.63103      4.34405        -0.243036      0.803069      0.856940
Pb       3.94350     11.62810     17.52865        -0.054321      0.334717      1.209551
Pb      15.50180     11.51881      4.25112         0.493327      0.808572      0.869670
Pb      15.54733     11.62654     17.47031         0.083993      0.418814      0.912569
Pb       3.83583     11.56176      8.70490         0.189412      1.049025      1.589189
Pb      15.51562     11.77445      8.77800         0.206211     -0.237035      0.960799
Pb       3.83744     11.76672     13.12163         0.430525      0.012169      1.157204
Pb      15.50981     11.61743     13.12838         0.025851      0.539336      0.736150
Pb       7.87935      3.67550      4.48602        -0.438733      0.737145      0.420499
Pb       7.78403      3.82702     17.52600        -0.082177     -0.027858      1.018080
Pb       7.69925     15.45885      4.28544         0.245431      0.195748      1.204842
Pb       7.76087     15.58381     17.61847        -0.126352     -0.181029      0.260358
Pb       7.68858      3.90999      8.71035        -0.001095      0.211489      1.501208
Pb       7.82390     15.58330      8.65839        -0.148915     -0.248016      1.610917
Pb       8.04924      3.96887     13.05876        -0.745343     -0.454134      0.799494
Pb       7.79436      0.03429     13.21249         0.268790     -0.021873      0.641321
Pb       7.94944      7.76055      4.35038        -0.519020      0.010653      1.010329
Pb       7.82244      7.91429     17.62592        -0.252525     -0.433175      0.670999
Pb       7.74253      7.82805      8.70848        -0.229133     -0.055935      0.564563
Pb       7.76368      7.93977     13.05296        -0.204974     -0.608187      1.013509
Pb       7.86476     11.72174      4.38201        -0.107470     -0.356136      0.787107
Pb       7.77800     11.71205      0.01542        -0.040601      0.081832      0.187975
Pb       7.84857     11.71198      8.94233        -0.288593     -0.012477     -0.141420
Pb       7.79735     11.78108     13.17398        -0.210025     -0.268611      0.748317
Pb      11.64455      3.88204      4.42107         0.616631      0.322752      0.816556
Pb      11.88525      3.83118     17.57689        -1.222282      0.098456      1.112583
Pb      11.51053     15.41142      4.39509         0.362513      0.592591      0.462698
Pb      11.46599     15.48279     17.59483         0.603758      0.069573      0.606988
Pb      11.53184      3.91004      8.74834         0.504935      0.207471      1.245302
Pb      11.82474      0.07015      8.66385        -0.386303     -0.016133      1.460285
Pb      11.80849      3.92351     13.17617        -0.683629     -0.266705      0.382679
Pb      11.69053     15.55776     13.14095        -0.032250      0.155047      0.568756
Pb      11.77496      7.68347      4.23594        -0.358048     -0.342490      0.788900
Pb      11.72307      7.71145     17.47608        -0.459755      0.302372      1.257850
Pb      11.57185      7.79426      8.66501         0.222018     -0.043365      1.175528
Pb      11.76070      7.71965     13.20522        -0.288892      0.241136      0.116892
Pb      11.68625     11.66104      4.21624        -0.055095     -0.109024      0.736918
Pb      11.83634     11.54341     17.41528        -0.755919      0.610396      1.402528
Pb      11.73711     11.60517      8.55874         0.093516     -0.086213      1.938019
Pb      11.60342     11.60874     12.96409         0.518065      0.354159      1.942445
Ti       1.88485      1.89931      2.45392         0.751233     -0.007781     -2.357591
Ti       1.88129      2.00167     15.74387        -0.252382     -0.712609     -2.209351
Ti       1.89967     13.56261      2.44231         0.961961      0.946613     -2.212017
Ti       1.94572     13.60987     15.74916        -0.208550      0.797476     -2.714603
Ti      13.61010      1.87144      2.50955        -0.510109      0.706604     -1.663907
Ti      13.49109      1.90628     15.77159         0.866274     -0.969980     -2.924436
Ti      13.68693     13.62555      2.44574        -0.330942     -0.560036     -2.289505
Ti      13.63696     13.62694     15.61891        -0.164149      0.448838     -1.800303
Ti       1.90644      2.00192      6.85692        -0.166621     -0.944821     -1.573865
Ti       1.88536     13.65784      6.87583         1.142597     -0.334781     -2.011304
Ti      13.63909      1.95685      6.86605        -0.127237      1.052288     -2.207240
Ti      13.64413     13.63406      6.81887         0.343350     -0.142994     -1.993783
Ti       1.94662      1.94229     11.18285        -0.275645     -0.286675     -0.501934
Ti       1.89228     13.60143     11.24337        -0.883822      0.772167     -1.400827
Ti      13.56115      1.98058     11.25928         0.341285     -0.960622     -2.233128
Ti      13.62392     13.62531     11.31003         0.135770      0.229152     -2.028932
Ti       1.89453      5.84722      2.42452         0.454638      0.585883     -2.221130
Ti       1.89547      5.87475     15.70287         0.755959      0.085777     -2.463732
Ti      13.71052      5.71032      2.39414        -1.033614      0.880720     -0.848419
Ti      13.57751      5.80295     15.69684         0.704035      0.004772     -2.125162
Ti       1.91721      5.90461      6.93824        -0.593377      0.427258     -1.347001
Ti      13.59799      5.85221      6.93870        -0.288031     -0.168286     -2.662358
Ti       1.95136      5.80463     11.35667        -0.689761      0.346663     -2.123878
Ti      13.67088      5.85000     11.33587         0.590825     -0.023588     -1.106115
Ti       2.00829      9.73633      2.41534        -0.575461      0.164260     -2.285835
Ti       1.95658      9.78712     15.64130         0.197695     -0.450189     -1.675709
Ti      13.64774      9.65707      2.39417        -0.703393     -0.016804     -2.470295
Ti      13.61888      9.67933     15.62493         0.237006      0.338685     -2.392230
Ti       1.88475      9.76613      6.95219        -0.074766      0.077191     -1.802308
Ti      13.67107      9.70688      6.83100         0.067079     -0.930436      0.155116
Ti       1.92702      9.76953     11.29809         0.031708     -0.892963     -2.501093
Ti      13.61856      9.68499     11.25971        -0.021653      0.485181     -1.713141
Ti       5.88164      1.92189      2.54385        -0.822517      0.161267     -2.558698
Ti       5.75905      1.98831     15.62768         0.611821     -0.768363     -1.746826
Ti       5.87840     13.55863      2.46071        -0.904334      0.510392     -2.435979
Ti       5.79788     13.69780     15.73269         0.395102     -0.679681     -2.326777
Ti       5.79837      1.88837      6.92655         0.080725      0.648734     -1.838216
Ti       5.83044     13.60556      6.96404        -0.053729     -0.347954     -1.969220
Ti       5.86830      1.97081     11.32599         0.519816     -0.250284     -2.983708
Ti       5.85713     13.71081     11.30092        -0.040652     -0.640293     -2.341981
Ti       5.74703      5.76022      2.58088         0.872556      0.373174     -1.809217
Ti       5.82352      5.85732     15.75031        -0.757313      0.299006     -2.623932
Ti       5.69132      5.80590      6.85356         1.124277      0.964840     -2.132746
Ti       5.79517      5.81296     11.24592         0.381400     -0.012428     -0.709987
Ti       5.83990      9.71853      2.59376         0.814071     -0.468829     -2.272714
Ti       5.87241      9.77929     15.71935        -0.324858      0.097682     -2.258988
Ti       5.79614      9.80600      6.81181         1.334255     -0.988972     -1.154459
Ti       5.79672      9.77905     11.30223        -0.507878      0.387343     -2.583445
Ti       9.78484      1.89225      2.54071        -0.457468      0.063832     -2.120859
Ti       9.66466      1.92963     15.65293         0.060231     -0.353177     -2.686520
Ti       9.73562     13.59157      2.43731        -0.170560      0.752163     -2.493205
Ti       9.73491     13.59342     15.70179        -0.709441     -0.136114     -1.681144
Ti       9.71523      1.96956      6.91694         0.184338      0.105340     -1.964493
Ti       9.81992     13.64389      6.91894        -1.548675     -0.328015     -1.339936
Ti       9.73628      1.87890     11.23960         0.255194      0.763841     -1.365151
Ti       9.71373     13.61518     11.24290        -0.052625      0.551167     -2.106635
Ti       9.66683      5.71369      2.47691         0.058951      0.937737     -1.862876
Ti       9.64189      5.81852     15.69708        -0.064468     -0.156552     -0.682083
Ti       9.63871      5.85735      6.90828         0.162529      0.402488     -2.066910
Ti       9.74576      5.88134     11.26284        -0.381290     -0.459175     -2.123702
Ti       9.71703      9.71152      2.44461        -0.318329     -0.286528     -1.581123
Ti       9.72136      9.72170     15.73745        -0.389876      0.780459     -2.985675
Ti       9.70523      9.78412      6.84869        -0.788926     -0.633916     -2.832305
Ti       9.72332      9.71024     11.25667        -0.106924      0.062953     -2.174141
O       1.99169      2.00267      0.60361        -0.455771     -0.276713      1.585120
O       1.85633      1.95777     13.87926         0.239993      0.330117      1.388456
O       1.94201     13.74113      0.59511        -0.187569     -0.617350      1.554275
O       1.99538     13.61972     13.87774        -0.003316     -0.108166      1.504720
O      13.53512      1.94782      0.67093         0.167322      0.270923      0.956944
O      13.60226      1.80782     13.91835        -0.219495      0.424839      1.375130
O      13.70433     13.50129      0.65917        -0.155513      0.310753      1.126244
O      13.57341     13.62553     13.82437         0.060992      0.305821      1.224729
O       1.82933      1.88637      5.03817         0.142429      0.554769      1.104216
O       2.02359     13.65436      5.06508        -0.595827      0.075826      1.224606
O      13.66064      2.00967      5.01047         0.093027     -0.298272      1.922613
O      13.59158     13.62062      4.98867         0.150985      0.038677      1.246411
O       1.93297      1.86330      9.41988         0.118355      0.315412      0.224350
O       1.76113     13.69083      9.43641         0.382329     -0.217957      1.312924
O      13.55966      1.84999      9.42017        -0.013378      0.219290      1.285164
O      13.63658     13.58329      9.47926         0.076090      0.205910      0.710614
O       1.83863      5.90798      0.57145         0.075103     -0.075530      1.514432
O       1.96799      5.85176     13.86238        -0.247633     -0.102608      1.663714
O      13.52944      5.71539      0.55096         0.414854      0.093107      1.063705
O      13.53712      5.73185     13.86262        -0.217223      0.385334      1.480108
O       1.85526      5.88822      5.14445         0.212833     -0.013330      1.127886
O      13.54706      5.77265      5.08156         0.363708      0.542925      1.889595
O       1.87844      5.86701      9.50250         0.308732     -0.498097      1.178402
O      13.73173      5.84078      9.59981        -0.363299      0.045814     -0.136121
O       1.86696      9.79698      0.58487         0.271335     -0.287997      1.425697
O       1.84842      9.80968     13.81978         0.344163     -0.094525      1.149721
O      13.53522      9.68919      0.56503         0.468115      0.006973      0.909004
O      13.67837      9.72641     13.80961        -0.277002     -0.237085      1.158836
O       2.03501      9.73703      5.10921        -0.728921      0.004537      1.078966
O      13.80534      9.55674      5.08169        -0.366372      0.595827     -0.112768
O       1.88312      9.83021      9.44443         0.306635     -0.358961      1.230789
O      13.60451      9.74204      9.46914         0.147601      0.076512      0.803507
O       5.84566      2.01843      0.71212         0.128623     -0.260239      1.649389
O       5.79604      1.93028     13.79967        -0.047373      0.154059      1.122273
O       5.84439     13.62611      0.62091         0.025696     -0.262999      1.707291
O       5.68219     13.69904     13.87712         0.417713     -0.139195      1.050703
O       5.80185      1.93964      5.10007         0.124260     -0.282620      1.268584
O       5.86663     13.57422      5.11556        -0.031936      0.186033      1.515565
O       5.89188      1.89913      9.44256        -0.300847      0.179445      1.598884
O       5.86470     13.58186      9.43818        -0.002567      0.468135      1.741650
O       5.82163      5.74384      0.73460        -0.181138     -0.036360      1.661991
O       5.72246      5.96958     13.95083         0.393569     -0.311347      1.138936
O       5.55092      5.88520      5.03986         0.331877     -0.321559      1.278126
O       5.83384      5.85901      9.46905        -0.335124     -0.152810      0.858920
O       5.82517      9.78054      0.73797         0.124096     -0.224621      1.115470
O       5.70154      9.77240     13.90601         0.808136     -0.139560      1.056277
O       5.80261      9.75256      4.95920        -0.210741      0.307235      1.673388
O       5.70667      9.77619      9.42991         0.190873      0.001524      1.593072
O       9.65151      1.96448      0.72166         0.360853     -0.378684      1.322967
O       9.64893      1.83457     13.76073         0.287975      0.255090      1.970190
O       9.58506     13.79533      0.61992         0.627573     -0.611675      1.229329
O       9.63817     13.69773     13.90108         0.260760     -0.488248      0.923447
O       9.74815      1.94106      5.05090        -0.300504      0.082256      1.754223
O       9.72894     13.56546      5.08601         0.508851      0.339112      1.005516
O       9.79831      1.96572      9.42933        -0.072598     -0.462622      0.699174
O       9.57979     13.66654      9.41544         0.650692     -0.362385      1.192081
O       9.61223      5.80627      0.65313         0.063063     -0.260133      1.393713
O       9.70297      5.82559     13.92947        -0.074445      0.061936      0.406202
O       9.76786      5.81861      5.09836        -0.163612      0.083599      1.187228
O       9.66758      5.99033      9.48034         0.295373     -0.268364      0.324453
O       9.59782      9.73057      0.59910         0.400792     -0.297582      1.539063
O       9.68897      9.79901     13.87376        -0.067246     -0.451272      1.026377
O       9.64059      9.73770      4.94758         0.346274      0.416477      1.992028
O       9.64885      9.74346      9.42618         0.249304     -0.034752      1.368164
O       3.82289      1.88849      2.84719         0.024392      0.025501      0.153839
O       3.86478      1.99430     15.93114        -0.051966     -0.080072      0.391828
O       3.82676     13.62147      2.83823         0.571171     -0.133098     -0.066016
O       3.88234     13.57332     16.03754        -0.562191      0.091542      0.458419
O      15.52634      2.01641      2.84863         0.431597     -0.275200     -0.211776
O       0.02229      1.95044     16.03660        -0.843146     -0.028461      0.505772
O      15.59026     13.55799      2.78771        -0.360410      0.296074      0.429469
O       0.00707     13.69953     15.98198        -1.119738     -0.418909      0.300164
O       3.85360      1.99987      7.21291        -0.029524     -0.282601      0.074199
O       3.82629     13.60945      7.30971         0.625655      0.213440     -0.229029
O       0.00303      1.96721      7.33752        -0.638352     -0.079604     -0.883366
O      15.56319     13.60289      7.21921        -0.621979      0.498246     -0.214045
O       3.93449      1.93552     11.53967        -0.822156      0.002569      0.241636
O       3.79540     13.67719     11.68842         0.454334     -0.053455     -0.717841
O      15.59395      1.99337     11.61337        -0.478354     -0.237249     -0.218920
O      15.53533     13.66376     11.63205         0.750000     -0.439893      0.187071
O       3.82650      5.88723      2.80491         0.218766     -0.069937      0.201902
O       3.85185      5.85451     16.11960        -0.083610     -0.108711      0.206978
O       0.06156      5.79186      2.79772        -1.485153      0.183506      0.068758
O      15.49694      5.87975     16.07252        -0.017994     -0.118904     -0.091832
O       3.86709      5.87537      7.31006        -0.982500     -0.030512      0.136294
O      15.52814      5.87737      7.39038         0.276618     -0.189706     -0.770922
O       3.85509      5.84807     11.66458         0.641108     -0.292761     -0.230241
O      15.55457      5.86186     11.73329         0.108116     -0.404412      0.161344
O       3.90733      9.77648      2.83728        -0.543994     -0.037317     -0.194729
O       3.91575      9.78743     16.06660        -0.746019     -0.304760     -0.049382
O      15.53537      9.67762      2.75264         0.694284      0.557369      0.190953
O      15.56222      9.71363     15.96055         0.008171      0.138725      0.248196
O       3.83062      9.75296      7.28724         0.654887     -0.219016     -0.580091
O       0.00126      9.68530      7.25069        -0.742259      0.354249     -0.190770
O       3.86723      9.72940     11.62924        -0.336427      0.237648     -0.064542
O      15.56192      9.67533     11.65105         0.290911      0.705578     -0.165521
O       7.77596      1.86147      2.95763         0.035027      0.353318     -0.230351
O       7.78485      1.82558     16.00496        -0.607043      0.200217      0.073400
O       7.83612     13.61563      2.79969        -0.619437     -0.180594      0.223862
O       7.72878     13.65745     16.08536         0.510818     -0.204923     -0.042149
O       7.74307      2.01349      7.35426         0.483751     -0.476943     -1.096240
O       7.85801     13.60434      7.32646        -0.366213      0.126200     -0.562623
O       7.87777      1.94700     11.60769        -0.776889     -0.024371      0.106374
O       7.76097     13.61883     11.62720        -0.031430     -0.063705      0.196595
O       7.74532      5.80318      3.07345         0.229159     -0.778668     -0.888599
O       7.67837      5.78192     16.14836         1.361330      0.250752     -0.335634
O       7.71004      5.78906      7.25789         0.361712      0.518705     -0.395629
O       7.80264      5.78464     11.62450        -0.364493      0.668639      0.162946
O       7.81968      9.80668      2.87889        -0.009280     -0.295717     -0.223957
O       7.80349      9.85254     16.08718        -0.909640     -0.811464      0.016373
O       7.77528      9.77863      7.25684        -0.338357      0.139536     -0.325805
O       7.66996      9.82610     11.58617         1.340103     -0.343160      0.295181
O      11.63492      1.87157      2.95584         0.779311     -0.119724     -0.359505
O      11.64076      1.92041     16.06350        -0.369006      0.062908      0.068212
O      11.70437     13.64755      2.83411         0.002923     -0.122737     -0.172494
O      11.67125     13.54908     16.10266        -0.120467      0.416258     -0.219274
O      11.65510      2.09717      7.31071         0.070804     -1.022824     -0.762655
O      11.76124     13.59511      7.31416        -0.566957      0.353262     -0.729756
O      11.67831      1.99700     11.68185        -0.034565     -0.880515     -0.099192
O      11.65187     13.56952     11.59325        -0.439995      0.406075      0.017359
O      11.71087      5.72692      2.90683        -0.072102      0.739362     -0.634020
O      11.58586      5.85191     16.10766         0.468546     -0.417214     -0.500188
O      11.64470      5.83372      7.32999        -0.126678      0.351983     -0.210179
O      11.63982      5.82183     11.70502         0.616353      0.599403      0.155263
O      11.61517      9.77631      2.78916         0.834720     -0.472616     -0.076977
O      11.66810      9.70057     15.97079         0.446019     -0.171478      0.132051
O      11.68247      9.57510      7.12934         0.046756      1.285360     -0.158134
O      11.68158      9.74818     11.56055        -0.414082     -0.508290      0.139955
O       1.91759      3.96143      2.78641         0.184802     -0.968901      0.200981
O       1.86304      3.99186     16.16666         0.144064     -0.908919     -0.455665
O       1.88388     15.59892      2.80263        -0.360413      0.012629      0.115125
O       1.89545     15.56992     16.04354         0.438070      0.588299      0.160048
O      13.58422      3.93218      2.85021         0.463078     -0.898658     -0.209906
O      13.63294      3.82329     15.99641        -0.209760      0.861771      0.340220
O      13.68508      0.00085      2.67839         0.008708     -0.678335      0.522944
O      13.49147     15.58252     16.14164         0.577348     -0.427037     -0.151659
O       1.91207      3.89447      7.29407         0.119023      0.220073     -0.488765
O       1.89409      0.00968      7.24634         0.049991      0.176450     -0.134265
O      13.54702      3.91904      7.23237         0.664740     -0.348729      0.234017
O      13.62263      0.02264      7.13478        -0.009109     -0.238958     -0.060689
O       1.86647      3.87169     11.69975         0.601181     -0.455767     -0.334580
O       1.82997      0.00923     11.59508         0.584867     -0.013140     -0.066103
O      13.54939      3.85357     11.59769         0.425449      0.288046      0.375219
O      13.63170     15.59346     11.65582        -0.344768      0.253711     -0.069329
O       1.89181      7.89372      2.78437         0.309416     -0.542647      0.163837
O       1.94238      7.82824     15.95329        -0.167802      0.358851      0.486784
O      13.73373      7.76498      2.75649        -0.657392     -0.315293      0.096834
O      13.58978      7.77943     15.98048        -0.142391     -0.387618      0.026368
O       1.83623      7.79792      7.32728         0.692665      0.119312     -0.250135
O      13.60572      7.79151      7.34985         0.280000     -0.002161     -0.444773
O       1.91398      7.74552     11.56891         0.010280      0.867275      0.547451
O      13.70937      7.81862     11.65014        -0.876804     -0.349485      0.344804
O       1.90121     11.69597      2.84776        -0.026575     -0.768572     -0.117391
O       1.88684     11.68163     16.12504         0.119286     -0.260225     -0.417260
O      13.68351     11.59514      2.75867        -0.479503      0.388036      0.404541
O      13.60223     11.68835     15.90099         0.444710     -0.459155      0.373710
O       1.86329     11.71863      7.32980         0.032589     -0.414989     -0.518060
O      13.67233     11.68084      7.21100        -0.244138     -0.374553     -0.565812
O       1.91538     11.61853     11.61744        -0.203519      1.257405     -0.055246
O      13.61313     11.72426     11.68393         0.294627     -0.912862     -0.245890
O       5.74417      3.78339      3.00933         0.280767      0.699213     -0.332053
O       5.80595      3.83470     16.00773         0.065787      0.093512      0.119398
O       5.84813     15.48313      2.81518        -0.060586      0.678969      0.299513
O       5.74774     15.52530     16.08880         0.109506      1.401085     -0.053974
O       5.80596      3.93082      7.26170        -0.398693     -0.659791     -0.079010
O       5.83081     15.56572      7.24425        -0.090698      0.251180     -0.125415
O       5.84784      3.89048     11.63007        -0.080581     -0.012315      0.135615
O       5.89077      0.03359     11.73951        -0.376104     -0.518788     -0.525372
O       5.87930      7.80494      2.90848        -0.334709     -0.182415     -0.209704
O       5.79449      7.77168     16.10521         0.425274      0.830324      0.267746
O       5.86251      7.79982      7.22680        -0.645289      0.541271     -0.067667
O       5.82641      7.83037     11.57439         0.007970     -0.316914      0.253959
O       5.87210     11.71197      2.90458        -0.133030     -0.210788     -0.089072
O       5.81232     11.68169     16.13184         0.299284     -0.096584     -0.181667
O       5.86699     11.67354      7.27491        -0.403165     -0.119288     -0.260824
O       5.87611     11.75652     11.71098        -0.766205     -0.018099     -0.186014
O       9.82368      3.85310      2.89851        -0.971057     -0.432850     -0.061374
O       9.65642      3.79375     15.98370         0.085466      0.940674      0.015099
O       9.69279     15.53607      2.83623         0.346167      0.133345      0.397683
O       9.72538     15.54888     16.05786         0.105802      0.178262      0.096352
O       9.66453      3.94500      7.22787         0.122460     -0.686751      0.088556
O       9.78860      0.02328      7.19054         0.079848     -0.109906     -0.151089
O       9.79683      3.90005     11.46671        -0.176144     -0.117097      0.772116
O       9.65662     15.47871     11.64192         0.587051      0.906271     -0.220511
O       9.73905      7.67847      2.83732         0.039220      0.858594     -0.315156
O       9.64869      7.82202     16.04049         0.026550     -1.048657      0.165537
O       9.65124      7.84716      7.19716         0.007310     -0.492906      0.073532
O       9.70714      7.79938     11.61672         0.039821      0.583245      0.451320
O       9.75768     11.73050      2.73854         0.062770     -0.638398      0.255920
O       9.69601     11.62472     16.07339         0.282110      1.078850      0.175873
O       9.73647     11.67865      7.22087         0.403567      0.198693     -0.013814
O       9.72254     11.62464     11.59707        -0.532495      0.517159     -0.088310
