  # total energy = -7882.40083150 
CRSYTAL
PRIMVEC
    15.3600000000000000    0.0000000000000000    0.0000000000000000
     0.0000000000000000   15.3600000000000000    0.0000000000000000
     0.0000000000000000    0.0000000000000000    17.440000000000000
PRESSURE
2.33224 2.33051 -0.130519 0.232482 0.330032 -0.014019
PRIMCOORD
320 1
Pb       3.84329      3.74616      4.30526        -0.105634      0.296718      0.451180
Pb       3.75332      3.76250     17.40672         0.920386      0.150984      0.664296
Pb       3.78154     15.27974      4.33476        -0.209474      0.129585      0.621922
Pb       3.68928     15.27131     17.29687         0.730087      0.066202      0.793868
Pb       0.04949      3.73132      4.25065         0.120476      0.507079      1.410400
Pb       0.04532      3.84214     17.38198        -0.220164     -0.197845      0.486402
Pb       0.02699     15.33887      4.26287         0.060159     -0.078986      1.344400
Pb      15.33587     15.28287     17.37683        -0.602726      0.203127      0.435849
Pb       3.74938      3.78609      8.75356         0.435186      0.404004     -0.344277
Pb       3.84940      0.03531      8.55844        -0.123129      0.023745      0.599106
Pb      15.35675      3.93105      8.71408        -0.453232      0.049590     -0.209102
Pb      15.21852     15.35894      8.71729         0.478361      0.236626      0.388470
Pb       3.78192      3.79480     12.99587         0.645650      0.341336      0.304669
Pb       3.76071      0.06615     12.92534         0.418863     -0.685442      0.724084
Pb       0.03703      3.79898     13.04804         0.097229     -0.305757      0.630318
Pb      15.31275     15.27638     13.04772         0.521215      0.232887      0.347288
Pb       3.81341      7.65246      4.33998         0.103867     -0.271455     -0.067941
Pb       3.81605      7.55712     17.32165        -0.294325      0.287083      0.285380
Pb       0.00387      7.79288      4.28920        -0.023901     -0.218629      0.467660
Pb      15.22890      7.56702     17.39229         0.454457      0.698359      0.493367
Pb       3.76945      7.73617      8.65778         0.305068     -0.220061      0.414186
Pb      15.35745      7.68323      8.65759        -0.240117      0.204555      0.300175
Pb       3.81953      7.58776     12.94025         0.600810      0.168175      0.674557
Pb      15.30566      7.57101     13.06944         0.392553      0.397549      0.528422
Pb       3.87255     11.53833      4.32172        -0.367141     -0.159033      0.757112
Pb       3.76589     11.60242     17.35237         0.201584     -0.692021      0.281912
Pb      15.23868     11.50130      4.36709         0.605461     -0.427523     -0.012129
Pb      15.28079     11.55604     17.31929        -0.107147     -0.359342      0.989247
Pb       3.88320     11.49142      8.67314        -0.254416      0.019536     -0.015336
Pb      15.26837     11.50363      8.71609         0.461621     -0.391722      0.216414
Pb       3.81734     11.43582     12.99383         0.306659      0.369072      0.621223
Pb       0.08898     11.52555     12.99306        -0.400024      0.027372      0.667077
Pb       7.69244      3.71854      4.28013        -0.085123      0.699239      0.465935
Pb       7.54894      3.77471      0.02830         0.213219      0.422047      0.528150
Pb       7.71943     15.24576      4.37215        -0.277095      0.433216      0.819129
Pb       7.66322      0.00472     17.40346         0.137220     -0.695203      0.310723
Pb       7.65250      3.87281      8.59753         0.012715      0.144402      1.059422
Pb       7.63271      0.01920      8.68352         0.407090      0.009579      0.253783
Pb       7.77266      3.91468     12.96594        -0.269864     -0.207964      1.060756
Pb       7.58034      0.10273     12.95811         0.020071     -0.409948      1.162974
Pb       7.75827      7.62557      4.33689        -0.662910     -0.432025      0.320562
Pb       7.53708      7.74443     17.37700         0.545226      0.025299      0.388279
Pb       7.73101      7.62498      8.66389        -0.160935      0.157632      0.733058
Pb       7.67466      7.71538     12.99924        -0.188443     -0.377980      0.310174
Pb       7.67329     11.49305      4.32622         0.248673     -0.199830      0.929274
Pb       7.64485     11.46645     17.40332        -0.113193      0.113656     -0.241399
Pb       7.62862     11.58399      8.61619         0.026754     -0.236973      1.162004
Pb       7.63360     11.46760     12.92741         0.555798      0.279328      1.074175
Pb      11.41948      3.81117      4.22556         0.319910     -0.374773      1.044959
Pb      11.61256      3.81495      0.00089        -0.696274     -0.075766      0.523226
Pb      11.53722     15.21559      4.36583         0.047386      0.725025      0.548294
Pb      11.38227     15.29279      0.08506         0.662671     -0.097492     -0.077975
Pb      11.36694      3.85626      8.62942         1.670885     -0.205042      1.320867
Pb      11.49140      0.05231      8.67626        -0.291834     -0.140626      0.533296
Pb      11.59363      3.75535     13.06895        -0.847757     -0.334216      0.868176
Pb      11.57763     15.35391     12.97222        -1.002833     -0.042943      1.597278
Pb      11.45527      7.62622      4.24649         0.808527      0.114814      1.201185
Pb      11.52385      7.67994     17.40523        -0.720256      0.702995      0.550000
Pb      11.52582      7.70473      8.64389         0.063681      0.288188      0.564709
Pb      11.47417      7.58992     13.10218        -0.212580      0.497974      0.482190
Pb      11.53990     11.50930      4.21255        -0.377461      0.182557      0.803884
Pb      11.40415     11.45442     17.38525         0.011026      0.196346      0.683011
Pb      11.58773     11.50666      8.55275        -0.147144     -0.052599      1.718766
Pb      11.57542     11.49405     13.03615        -0.651243      0.171496      0.463406
Ti       2.01923      1.83618      2.29534        -0.711618      0.184613      0.966814
Ti       1.91366      1.91433     15.40852        -0.067288     -0.496352     -0.993657
Ti       1.88782     13.36163      2.34284         0.148000     -0.157706     -1.452518
Ti       1.82525     13.40274     15.37911         0.365553     -0.353921      0.454673
Ti      13.53352      1.95487      2.40150        -0.580671     -0.988689     -0.624611
Ti      13.46382      1.90736     15.45367        -0.565935     -1.271583      0.909672
Ti      13.51865     13.50630      2.32214        -1.471573     -0.780758     -1.026477
Ti      13.34266     13.37675     15.47513        -0.295972      1.315564     -0.765262
Ti       1.87831      1.92118      6.74503         0.226545      0.362707      0.102044
Ti       1.87331     13.45357      6.75658        -0.249789     -0.380174     -0.836238
Ti      13.41724      1.93674      6.68607         1.133642      0.907316     -1.561314
Ti      13.40349     13.49365      6.74843         0.393827     -0.256286     -0.608540
Ti       1.93193      1.95885     10.99449        -0.187650     -1.042937     -0.335914
Ti       1.90141     13.42499     10.94966         0.385499      0.358189      1.530190
Ti      13.48029      1.91917     11.07151        -0.112274     -0.861017     -0.611378
Ti      13.41076     13.42872     11.15522        -0.003930     -0.833816     -0.720077
Ti       1.88511      5.72843      2.36006         0.235483      0.212780     -0.130006
Ti       1.87728      5.74416     15.39830         0.891779      0.469296     -1.042681
Ti      13.39062      5.75293      2.43159         0.860640      0.345257      0.427576
Ti      13.32458      5.69666     15.43481         0.589447      0.555747     -0.789663
Ti       1.93226      5.81073      6.76544        -1.130466     -0.609032     -0.665735
Ti      13.37201      5.76635      6.61628         1.479067      0.162685     -0.626235
Ti       1.88421      5.74111     11.04570         0.402809      0.235929     -0.832070
Ti      13.47375      5.65276     11.18478        -0.264833      0.968970     -1.484832
Ti       1.98360      9.64284      2.26443        -1.186120     -1.018827     -0.064136
Ti       1.79462      9.56504     15.43095         0.667096      0.343271     -0.108836
Ti      13.38477      9.63916      2.31279         1.369132     -0.485534     -1.255323
Ti      13.39974      9.58062     15.37167        -0.315129     -0.176918      0.703890
Ti       1.98118      9.64573      6.64832        -1.989868      0.520579      0.389927
Ti      13.44907      9.62216      6.69290         0.741768     -0.766080     -0.540482
Ti       1.87989      9.57145     11.09814         0.489086      0.131859     -2.401267
Ti      13.47983      9.51939     11.17260        -0.953033      0.843703     -0.738540
Ti       5.83401      1.79823      2.46894         0.002310      1.296382     -1.186277
Ti       5.81281      1.84894     15.48974        -0.628838      0.042765      0.901699
Ti       5.72125     13.41911      2.43039         0.477152     -0.338714      0.815367
Ti       5.75867     13.39209     15.36084         0.105846      0.017033     -1.889233
Ti       5.78772      2.00385      6.72082        -0.152981     -0.521249     -0.556685
Ti       5.71114     13.45752      6.73523         0.113870     -0.168682     -1.269399
Ti       5.74898      1.96834     10.96044         0.842293      0.665085     -0.251473
Ti       5.75800     13.46400     11.03294        -0.181529     -0.134011     -0.129296
Ti       5.67572      5.68689      2.34236         0.339773     -0.167392     -0.238640
Ti       5.74773      5.66803     15.38058        -0.123583      0.383108     -0.885501
Ti       5.70141      5.78722      6.66091         0.442471     -0.787730      0.179686
Ti       5.75283      5.74124     11.05268         1.320549      0.417786     -0.996356
Ti       5.75840      9.56988      2.39723        -0.084906     -0.522814     -0.238649
Ti       5.61738      9.52583     15.34547         0.595436      0.994799     -1.018250
Ti       5.80147      9.53957      6.70792         0.389217      0.503584     -1.135512
Ti       5.76869      9.62943     11.02608         0.199670     -1.110822     -0.097177
Ti       9.68596      1.86339      2.38645        -0.406013     -0.552425     -0.219426
Ti       9.62875      1.94899     15.55431         0.704237      0.107541     -1.282463
Ti       9.54760     13.38645      2.43763         0.399880      0.340819     -1.018034
Ti       9.63631     13.42861     15.33360        -0.704724      0.434145     -0.625629
Ti       9.62447      1.91014      6.67516        -0.029492     -0.474968     -0.779880
Ti       9.53924     13.41979      6.73594         0.639650      0.519104     -0.878023
Ti       9.59337      1.89951     11.09964         0.210143     -0.008385     -1.140968
Ti       9.59289     13.48722     11.07234        -0.562076     -0.407698      0.355522
Ti       9.55511      5.75090      2.31209        -0.582374     -0.589559     -0.531959
Ti       9.51691      5.76300     15.57696         0.061265      0.491478     -0.157898
Ti       9.61072      5.74882      6.75843        -0.718199      0.594120     -1.930727
Ti       9.73493      5.75118     11.09057        -1.996222      0.093957      0.374154
Ti       9.59905      9.49450      2.34959         0.113462      1.407363     -2.409286
Ti       9.54191      9.63031     15.42055        -0.467503     -0.680161      0.398977
Ti       9.56493      9.66994      6.75168         0.402263     -0.933886     -0.050793
Ti       9.63788      9.61822     11.12185         0.198875     -0.182914     -1.321480
O       2.00443      1.89957      0.56603        -0.478793     -0.184104     -0.597347
O       1.80234      1.90465     13.56414         0.731129      0.097169      2.010686
O       1.94711     13.37522      0.51050        -0.167468      0.200105      1.488075
O       1.82931     13.40466     13.63662         0.086766      0.050543     -0.131526
O      13.69157      1.84805      0.60631        -0.600470      0.524509      1.380720
O      13.43771      1.95694     13.71197         0.233939     -0.134039     -0.401936
O      13.37949     13.54825      0.52181         0.433903     -0.233483      1.246501
O      13.37716     13.41737     13.66471        -0.006322      0.031599      0.669029
O       1.92458      1.94299      4.97171         0.005209     -0.045996      0.554271
O       1.86319     13.48342      4.96335         0.018922     -0.300104      0.539203
O      13.45995      1.90077      4.85324         0.067586      0.210730      1.744316
O      13.42024     13.48550      4.97998         0.064613     -0.303248      0.706253
O       2.00198      1.92258      9.22778         0.024381      0.040164      0.352016
O       1.95781     13.42187      9.24184         0.114047      0.122095     -0.611196
O      13.44897      1.85883      9.31216        -0.053130      0.124454      0.527347
O      13.48425     13.34962      9.38862        -0.305318      0.373620      0.139076
O       1.90672      5.76327      0.54729        -0.035665     -0.042207      0.862948
O       1.94925      5.82022     13.60793        -0.021055     -0.681397      0.675757
O      13.52136      5.67139      0.67394        -0.077919      0.324282     -0.401551
O      13.37569      5.64713     13.63887         0.106156      0.401689      0.985962
O       1.99543      5.71522      5.02123        -0.227644      0.119057     -0.122374
O      13.34499      5.81014      4.81906         0.061416     -0.122555      1.260585
O       1.75536      5.87592      9.25424         0.673976     -0.482239      1.112079
O      13.51451      5.71263      9.42103        -0.339454     -0.214207      0.967741
O       1.89569      9.52774      0.49728         0.108568      0.120474      0.221454
O       1.77332      9.63720     13.67602         0.132491     -0.012753     -0.667397
O      13.46411      9.55952      0.50547        -0.215528      0.145952      1.585007
O      13.42568      9.45764     13.59806        -0.019677      0.345972      0.616998
O       1.69221      9.66284      4.90809         0.871922     -0.134420      0.685522
O      13.49424      9.57586      4.90641        -0.084651      0.312681      0.497756
O       1.92218      9.66468      9.24099         0.330071     -0.436687      2.072557
O      13.50760      9.78121      9.42418        -0.307503     -0.510286      0.196522
O       5.93762      1.91391      0.70130        -0.208275     -0.413846      0.142296
O       5.77649      1.83394     13.80606        -0.144201      0.088825     -1.978869
O       5.79771     13.31510      0.72827        -0.192547      0.049901     -0.961676
O       5.63052     13.49316     13.51734         0.421970     -0.230590      1.919684
O       5.76821      1.93748      4.94901        -0.046882      0.157113      0.052678
O       5.72675     13.46151      4.92411        -0.230341     -0.050323      1.087104
O       5.86850      2.02336      9.20152        -0.256655     -0.223736      0.060166
O       5.82574     13.40418      9.20557        -0.497101      0.076094      1.307135
O       5.62237      5.55204      0.56652        -0.022301      0.567374      0.505994
O       5.72666      5.86144     13.57216         0.038707     -0.660308      1.444827
O       5.77787      5.75083      4.89248        -0.176032      0.008713      0.605537
O       5.83015      5.84117      9.26140        -0.108134     -0.508228      0.761563
O       5.75276      9.65595      0.62823        -0.048539     -0.078668      0.997763
O       5.68730      9.57485     13.52823         0.085852     -0.170840      1.438196
O       5.93559      9.50879      4.90912        -0.499795     -0.042388      1.092137
O       5.74700      9.59777      9.23967        -0.211524      0.165779      0.405757
O       9.79826      1.77350      0.61709        -0.819475      0.314697      0.226040
O       9.68881      2.06032     13.76177        -0.369511     -0.367197      1.080988
O       9.63762     13.44822      0.66412        -0.321613     -0.031975      0.560462
O       9.73089     13.45620     13.55600        -0.411132     -0.155774      0.989082
O       9.63808      2.00331      4.89292         0.094215     -0.182429      1.109616
O       9.65008     13.34902      4.94718        -0.383452      0.259660      0.747943
O       9.72835      1.79749      9.29050        -0.424239      0.392916      0.783843
O       9.52089     13.72794      9.33823         0.094798     -0.606590     -0.146534
O       9.62037      5.78654      0.57040         0.044064      0.127914      0.535458
O       9.63149      5.69393     13.82154        -0.115694      0.222775     -0.029773
O       9.49868      5.74729      4.94737         0.514427      0.000720      0.858806
O       9.70492      5.75666      9.33354         0.135105      0.063448     -0.306426
O       9.58694      9.52775      0.49675        -0.220752      0.321196      2.002742
O       9.55582      9.51042     13.67686         0.122308      0.374584     -0.332239
O       9.59886      9.75268      5.00303         0.019244     -0.682726      0.253687
O       9.63550      9.37882      9.34446         0.116311      0.626042      0.620369
O       3.82381      1.85266      2.69030         0.444106     -0.247678      0.369964
O       3.85865      1.87461     15.96310        -0.530331     -0.531139     -0.881782
O       3.76911     13.36713      2.86454         0.538366      0.036791     -0.484348
O       3.83678     13.39396     15.89612        -0.369219      0.270965     -0.805503
O       0.04998      1.86522      2.86518        -0.068173      0.107876     -0.908598
O       0.01215      1.92785     15.93208         0.866876      0.148805     -0.723074
O       0.00623     13.40858      2.69308        -0.178275     -0.239671      0.023002
O      15.23720     13.44717     15.84208         0.524641     -0.224250     -0.317867
O       3.91307      2.05235      7.12150        -0.932984     -0.416476      0.045430
O       3.83931     13.37979      7.12655         0.079194      0.109345     -0.049304
O       0.06981      1.85162      7.24951        -0.851321      0.409114     -0.692732
O      15.31288     13.51738      7.29703        -0.144956     -0.241218     -0.914097
O       3.89182      1.87103     11.35414        -0.616994      0.627192      0.280606
O       3.82682     13.34620     11.55360        -0.192949      0.505339     -1.159523
O       0.06000      1.98074     11.40990        -0.809139     -0.519004     -0.026005
O       0.01961     13.46890     11.47205        -0.082329      0.126181     -0.171283
O       3.77741      5.69989      2.89114         0.079823     -0.016264     -0.600847
O       3.81004      5.67722     15.79364         0.325117      0.322429      0.028528
O      15.33279      5.63730      2.89801         0.700588      0.830186     -1.054776
O       0.03204      5.76120     15.75390        -0.856602     -0.358648      0.177394
O       3.80963      5.68909      7.06957         0.741832      0.481633      0.432498
O      15.31904      5.80134      7.11862        -0.065601      0.115621     -0.133902
O       3.92055      5.72926     11.40150        -2.054483     -0.082287      0.043437
O       0.03156      5.73453     11.59668        -0.439071     -0.374166     -0.409716
O       3.82960      9.68782      2.82343         0.817520     -0.402616     -0.295567
O       3.74678      9.64228     15.73594         0.179683     -0.118328      0.159862
O       0.03469      9.59140      2.80385        -0.757061      0.181598     -0.679121
O      15.25872      9.62714     15.83279        -0.024010     -0.152156     -0.229918
O       3.87343      9.62394      7.08420         0.015154      0.048985     -0.339509
O      15.35037      9.61105      7.21360         0.032801      0.367479     -0.635578
O       3.86019      9.64362     11.47231        -0.931082     -0.445659     -0.489415
O       0.02250      9.54517     11.47897        -0.077622     -0.259852      0.259208
O       7.78511      1.89080      2.90663        -1.373511     -0.300166     -0.623608
O       7.71835      1.88588     16.03100         0.377141      0.111805     -0.741898
O       7.64351     13.44190      2.90908        -0.543884     -0.155508     -0.565875
O       7.64935     13.39527     15.76108         0.293432      0.027416     -0.015028
O       7.75693      1.94963      6.98432        -0.276245      0.121395      0.362129
O       7.67699     13.53729      7.20443        -0.155817     -0.537134     -0.705498
O       7.66763      2.03574     11.52261         0.082155     -0.301726     -0.443954
O       7.57919     13.34421     11.46411         0.579370      0.595772     -0.175163
O       7.63447      5.85944      2.71318         0.435299     -0.502867     -0.233250
O       7.63288      5.79067     16.00843        -0.704538     -0.439540     -0.790337
O       7.69922      5.71887      7.10484         0.088807      0.164263     -0.018083
O       7.78874      5.68155     11.52895        -0.214585      0.590673     -0.568539
O       7.80289      9.46414      2.79925        -1.889056     -0.015203     -0.237865
O       7.56061      9.63342     15.83002         0.200202     -0.126928     -0.163172
O       7.69185      9.60969      7.21775        -0.008223     -0.417008     -0.452169
O       7.69867      9.56372     11.41806        -0.278863      0.195679      0.143850
O      11.55591      1.76974      2.77254         0.124703      0.387426     -0.211566
O      11.58688      1.97524     15.99106        -0.320721      0.153292     -0.484934
O      11.49590     13.55585      2.85475        -0.136540     -1.109997     -0.774715
O      11.45937     13.39738     15.94430         0.351001      0.092637     -0.486753
O      11.61726      1.94599      7.09497        -1.396495     -0.003153     -0.004920
O      11.53816     13.39545      7.17448        -0.319973      0.467376     -0.343718
O      11.50603      1.78530     11.45454         0.408129      0.724017     -0.117210
O      11.45590     13.52537     11.41936         0.875209     -0.146655     -0.105929
O      11.51286      5.69453      2.89423        -0.416164      0.315284     -1.178547
O      11.49615      5.86512     15.97060         0.695952     -0.757729     -0.714318
O      11.51197      5.77081      7.08320         0.484243      0.114881      0.124048
O      11.49741      5.70173     11.69059         1.168011     -0.029146     -0.872532
O      11.52245      9.56158      2.75629        -0.249835      0.663181     -0.119929
O      11.42243      9.60613     15.91624         1.033405     -0.479229     -0.868993
O      11.52279      9.64095      7.18214        -0.129253     -0.251620     -0.486512
O      11.53062      9.70136     11.51105         0.364125     -0.899847     -0.006285
O       1.99881      3.76494      2.75877        -0.633286      0.349095     -0.450894
O       2.08790      3.76465     15.84630        -1.577654      0.285419     -0.796821
O       1.84534     15.24003      2.78134         0.695107      0.997743     -0.549237
O       1.83122     15.25626     15.80690         0.455091      1.517674     -0.193121
O      13.42134      3.81083      2.78637        -0.074520     -0.391533     -0.390449
O      13.46744      3.86372     15.88448        -0.036543      0.238405     -0.069835
O      13.44832     15.26107      2.94034         0.332859      1.229443     -0.956636
O      13.38241      0.00419     15.86026         0.307251      0.082505     -0.369960
O       1.85893      3.90999      7.31761         0.299457     -0.834883     -0.833441
O       1.97492     15.32797      7.08594         0.278666      1.089889      0.227779
O      13.51311      3.91515      7.15657        -0.371299     -0.723226     -0.527708
O      13.43429      0.08373      7.11334         0.045996     -1.108257      0.047578
O       1.91171      3.83727     11.51017         0.453232      0.176439     -0.441570
O       1.97618      0.06589     11.47372        -0.525726     -0.964738     -0.648829
O      13.50533      3.74984     11.61362        -0.480201      0.377959     -0.674110
O      13.42003     15.34121     11.63603         0.876774      0.326865     -1.069063
O       2.02853      7.69051      2.82433        -0.635745     -0.615496     -0.592416
O       1.91633      7.69426     15.65069        -0.129189     -0.863655      0.670841
O      13.39001      7.74184      2.73370         0.177703     -0.993465     -0.204230
O      13.43459      7.67976     15.94140        -0.128693     -0.500330     -0.986760
O       1.87360      7.76510      7.12780         0.654862     -0.403594     -0.282434
O      13.51713      7.74238      7.18108        -0.986748     -0.662539     -0.512489
O       1.93673      7.57112     11.46961        -0.112997      1.337751     -0.145413
O      13.41562      7.59471     11.46979        -0.014425      0.274612      0.212811
O       1.89834     11.45369      2.71692        -0.019255      1.183626      0.077424
O       1.74434     11.57272     15.88053         0.692850     -0.801516     -0.509003
O      13.39048     11.56018      2.75018         0.163729     -0.162711     -0.253402
O      13.29561     11.49641     15.92510         0.507999     -0.375194     -0.894132
O       1.85005     11.57905      7.06859         0.388471     -0.872081      0.110255
O      13.45396     11.49421      7.09449         0.083821      0.977145     -0.068352
O       1.80451     11.48567     11.40297         0.534375      0.204059     -0.078294
O      13.42156     11.52647     11.65343         0.466273      0.247978     -0.624872
O       5.73568      3.74398      2.75993         0.186165      0.565939      0.281125
O       5.79652      3.77455     15.79930        -0.082622      0.620768      0.042208
O       5.65200     15.33861      2.80501         0.526673     -0.923111      0.036171
O       5.82329     15.30849     15.84798        -0.407825     -0.436088      0.242048
O       5.81730      3.87141      7.26339        -0.340412      0.051598     -1.058667
O       5.71667     15.35466      7.08440         0.119195      0.605234      0.021193
O       5.69207      3.85245     11.49906         0.312788     -0.636828     -0.115916
O       5.85423      0.09943     11.35513        -0.506311     -1.346365     -0.145278
O       5.63096      7.58131      2.67697         0.082914      1.349104      0.112483
O       5.69486      7.61956     15.82628        -0.188908      0.412323     -0.158796
O       5.75916      7.63184      7.07812        -0.044537      0.689255     -0.019452
O       5.78820      7.63610     11.39798        -0.064598      0.824049      0.119192
O       5.81594     11.47694      2.97463        -0.338359     -0.190231     -1.157735
O       5.69119     11.47149     15.83942         0.062713      0.446023     -0.338177
O       5.85864     11.50155      7.10369        -0.459237      0.056193     -0.237659
O       5.81705     11.46500     11.57175        -0.900515      0.664035     -1.174538
O       9.55868      3.80615      2.63692         0.351699      0.235925      0.227204
O       9.61012      3.90867     16.00784         0.060904     -1.129169     -0.035106
O       9.39344     15.30793      2.85764         1.427711      0.227415     -0.500767
O       9.69622     15.33965     15.85822        -0.584187      0.342178     -0.203619
O       9.72967      3.84071      7.17173        -1.023750     -0.484226     -0.813188
O       9.58480     15.31872      7.14550         0.564801      1.018389     -0.602370
O       9.65006      3.80970     11.56215         0.465787      0.009039     -0.699837
O       9.44635      0.01761     11.61262         0.445136      0.296970     -0.684294
O       9.72408      7.64914      2.73215        -0.473247     -0.433550      0.046150
O       9.45707      7.72936     15.93672         0.519035     -0.319008     -0.416274
O       9.64038      7.65589      7.19101        -0.120771      0.268795     -0.634653
O       9.62892      7.71557     11.63939         0.389615     -1.085212     -0.620749
O       9.42050     11.47473      2.76094         1.228134     -0.001181     -0.299678
O       9.61392     11.56079     15.83407        -0.383475     -0.549117     -0.159923
O       9.55057     11.55446      7.16476         0.092939     -0.200562      0.101860
O       9.62523     11.54494     11.45183        -0.287634      0.083090     -0.193544
