  # total energy = -7873.19002428 
CRSYTAL
PRIMVEC
    15.010000000000000    0.0000000000000000    0.0000000000000000
     0.0000000000000000   15.010000000000000    0.0000000000000000
     0.0000000000000000    0.0000000000000000    16.400000000000000
PRESSURE
20.5077 20.4744 14.4681 0.041791 -0.113156 -0.018411
PRIMCOORD
320 1
Pb       3.75191      3.72942      4.08439        -0.135992     -0.059908      0.603472
Pb       3.74090      3.73710     16.37940         0.079066     -0.032933      0.780352
Pb       3.73198     15.00131      4.07095        -0.052472      0.041548      0.819668
Pb       3.74079     14.99485     16.36929        -0.077504     -0.045167      0.728678
Pb      14.98309      3.72597      4.06773         0.298770      0.020516      0.811594
Pb      14.99350      3.72737     16.36632        -0.053540      0.117404      0.746565
Pb      14.98549     14.99681      4.07853         0.242712     -0.065705      0.678445
Pb      14.98389     14.98989     16.37549         0.079635      0.086787      0.646758
Pb       3.73878      3.72871      8.18061        -0.022577     -0.291113      0.214891
Pb       3.74210     14.98785      8.17857        -0.138519     -0.009181      0.384302
Pb      14.99370      3.73505      8.17847         0.150972     -0.060522      0.402240
Pb      14.98676     14.98304      8.16833         0.160853      0.020446      0.523837
Pb       3.74116      3.73081     12.26385        -0.135857      0.119485      0.906259
Pb       3.73561     14.99480     12.28065        -0.092005     -0.235874      0.644546
Pb      14.99167      3.72872     12.26905         0.081793      0.092029      0.920678
Pb      14.99452     14.99351     12.26924        -0.111447      0.001567      0.662924
Pb       3.72324      7.49473      4.06793        -0.139982     -0.275344      0.607279
Pb       3.73824      7.48213     16.38671        -0.055297     -0.095599      0.494598
Pb      14.98491      7.48569      4.06943         0.188234      0.085374      0.757009
Pb      14.99001      7.48723     16.37787        -0.065873      0.191234      0.477925
Pb       3.73186      7.49595      8.16163         0.018195     -0.145180      0.749444
Pb      14.99277      7.49091      8.17207        -0.169903      0.090825      0.503793
Pb       3.73307      7.49145     12.26892         0.399436      0.104870      0.863283
Pb      14.99542      7.47405     12.27038        -0.087402      0.134439      0.840881
Pb       3.72452     11.23431      4.07494        -0.075161      0.208043      0.596742
Pb       3.73521     11.22262     16.36453        -0.145646      0.204207      0.655222
Pb      14.98803     11.23501      4.06789         0.219352      0.032109      0.757656
Pb      14.98752     11.25262     16.37931         0.040933     -0.251279      0.468286
Pb       3.73138     11.22625      8.17237        -0.065334      0.308607      0.947901
Pb      14.98996     11.23343      8.16576         0.077489     -0.008990      0.839290
Pb       3.73669     11.24213     12.27457        -0.064117     -0.075037      0.480732
Pb      14.99478     11.24248     12.27298        -0.134258     -0.146289      0.569477
Pb       7.48938      3.73116      4.07305        -0.335415      0.196734      0.516264
Pb       7.48652      3.74276     16.36703        -0.050733     -0.006573      0.907872
Pb       7.48621     14.98175      4.07875        -0.332029     -0.122108      0.594739
Pb       7.47375     14.99138     16.36894         0.034542      0.145133      0.692451
Pb       7.48789      3.72738      8.17426         0.071978      0.256034      0.597867
Pb       7.48703     14.99590      8.17679        -0.096189     -0.280729      0.612030
Pb       7.48257      3.73075     12.26892         0.110883      0.255330      0.637922
Pb       7.49337     14.98092     12.27729        -0.079798     -0.076692      0.684306
Pb       7.47147      7.48956      4.05981         0.063594     -0.173534      0.822327
Pb       7.48270      7.48251     16.37366         0.158113     -0.098800      0.668296
Pb       7.48598      7.48768      8.18045         0.200501      0.086203      1.004682
Pb       7.49291      7.48449     12.28305        -0.104188      0.001371      0.554894
Pb       7.48634     11.24581      4.06621        -0.171907     -0.075223      0.737999
Pb       7.49019     11.23989     16.37268        -0.055189      0.030775      0.986298
Pb       7.48085     11.23624      8.17200         0.244399     -0.079001      0.795933
Pb       7.49138     11.23339     12.27257        -0.016733     -0.046592      0.406519
Pb      11.23439      3.73490      4.07127         0.038160      0.065713      0.648686
Pb      11.24679      3.74137     16.36723        -0.067017     -0.067290      0.850035
Pb      11.25345     14.98726      4.07883         0.057682      0.109864      0.595405
Pb      11.23177     14.98153     16.37694        -0.098390      0.176297      0.513677
Pb      11.25641      3.73227      8.16728        -0.254477      0.357401      0.448557
Pb      11.24788     14.98342      8.17483        -0.071008     -0.069544      0.497796
Pb      11.24760      3.72801     12.25831        -0.126235      0.334655      1.063024
Pb      11.24210     15.00380     12.26772         0.102912     -0.323236      0.854246
Pb      11.23905      7.48231      4.07437         0.103429      0.191020      0.634910
Pb      11.23274      7.48292     16.37899        -0.130632      0.122590      0.660604
Pb      11.22927      7.48226      8.17012        -0.099269      0.134807      0.668062
Pb      11.24204      7.47493     12.26747        -0.212184      0.022811      0.754717
Pb      11.24486     11.24075      4.07143        -0.130149     -0.237762      0.789220
Pb      11.23733     11.23351     16.37298         0.105593     -0.111738      0.676461
Pb      11.23108     11.23773      8.17689        -0.154599     -0.196910      0.751585
Pb      11.23401     11.24357     12.26498        -0.046391     -0.061357      0.859250
Ti       1.84871      1.85511      2.19792         0.483228      0.030396      0.150674
Ti       1.85913      1.85951     14.51489         0.312697     -0.056044     -0.544312
Ti       1.84980     13.10108      2.18340         0.244614      0.308313     -0.387366
Ti       1.83248     13.11462     14.49045         0.768878      0.092321     -0.146283
Ti      13.11283      1.86864      2.20513         0.049513     -0.381617     -0.682739
Ti      13.10828      1.85941     14.49850         0.256778      0.142073     -0.465592
Ti      13.10464     13.10649      2.18387         0.885216      0.380114      0.300054
Ti      13.10731     13.12023     14.51058         0.172170     -0.109984     -0.034559
Ti       1.84759      1.85307      6.30089         0.931710      0.226262      0.149631
Ti       1.85401     13.09383      6.29595        -0.013497      1.329018     -0.331810
Ti      13.09121      1.85853      6.29115         0.794839      0.084881     -0.218906
Ti      13.11073     13.09591      6.29135         0.442207      0.507910      0.563151
Ti       1.84708      1.85193     10.39456         0.249560     -0.090325     -0.612429
Ti       1.84033     13.11610     10.38909         0.633399     -0.282470     -0.797317
Ti      13.08501      1.89780     10.38797         0.876593     -1.104113      0.071061
Ti      13.11220     13.11515     10.38479        -0.074279     -0.092422     -0.565917
Ti       1.84443      5.60276      2.18227         0.541178      0.226866      0.592275
Ti       1.84525      5.60701     14.47349         0.159638      0.283525     -0.050578
Ti      13.11256      5.59796      2.21495         0.165037      0.474054     -0.129576
Ti      13.11289      5.60250     14.49412         0.142404      0.817081      0.451212
Ti       1.85711      5.59862      6.30002         0.093991     -0.082346     -0.851112
Ti      13.11735      5.61798      6.28079        -0.077537      0.171989      0.181470
Ti       1.86768      5.60195     10.38934        -0.054841      0.427483     -0.397028
Ti      13.11796      5.59759     10.37955        -0.120378      0.608033      0.473619
Ti       1.84101      9.36511      2.18127         0.080398     -0.055128      0.733707
Ti       1.89070      9.37264     14.48134        -0.786402     -0.412336      0.323860
Ti      13.10882      9.38347      2.20522        -0.160936     -0.832344     -0.189284
Ti      13.10078      9.36633     14.49178         0.457344     -0.118867      0.211646
Ti       1.89299      9.36071      6.30080        -1.265252      0.042132     -0.503209
Ti      13.11657      9.39565      6.29570        -0.018127     -1.093148      0.341888
Ti       1.86309      9.34714     10.38882         0.208840      0.608383     -0.551127
Ti      13.10688      9.34495     10.39826        -0.107484      0.332625     -1.077206
Ti       5.62601      1.84946      2.16988        -1.068185      0.205664     -0.396267
Ti       5.60691      1.86706     14.45538         0.651549      0.051120      0.982429
Ti       5.58574     13.10100      2.18959         0.152679      0.652257      0.734821
Ti       5.60677     13.11971     14.49527        -0.165455      0.034189      0.293490
Ti       5.63716      1.84732      6.29634        -1.054900     -0.010180     -0.401479
Ti       5.61283     13.09631      6.29696        -0.338767      0.435103     -0.232711
Ti       5.59523      1.84287     10.40245         0.507678      0.052272     -0.683606
Ti       5.59742     13.08544     10.39892         0.074958      0.712271     -0.204311
Ti       5.60490      5.60395      2.19527         0.485396      0.141108     -0.708084
Ti       5.61705      5.60885     14.51056        -0.211435      0.712297     -0.317610
Ti       5.60290      5.61198      6.30045         0.263036     -0.106099     -0.341180
Ti       5.59855      5.59282     10.36490         0.827920      1.236319      0.272395
Ti       5.59555      9.34779      2.19312         0.135109      0.513934      0.612848
Ti       5.62750      9.38534     14.49456        -0.364917     -0.875368     -0.948945
Ti       5.60475      9.34980      6.28404         0.495179      0.286827      0.589932
Ti       5.61317      9.35917     10.37029         0.324621     -0.134274      0.387798
Ti       9.35092      1.86470      2.19299         0.245880      0.077944      0.274568
Ti       9.36460      1.86352     14.46960         0.280658     -0.226946      0.684932
Ti       9.34988     13.11356      2.21303         0.031290      0.162708     -0.652767
Ti       9.34911     13.10078     14.49388         0.360034      1.047810     -0.827867
Ti       9.33807      1.86896      6.27624         0.579408     -0.025961      1.531164
Ti       9.36238     13.10572      6.26899         0.179886      0.059355      0.836367
Ti       9.37310      1.85246     10.38200        -0.549232      0.182284      0.051593
Ti       9.36038     13.12196     10.39217        -0.346478     -0.699923     -0.135679
Ti       9.36076      5.61109      2.21553        -0.017921      0.318925     -0.774872
Ti       9.37489      5.59220     14.48390        -0.288508      0.525334     -0.409024
Ti       9.33091      5.62280      6.28317         0.694446      0.253595      0.274112
Ti       9.34509      5.58984     10.38507         0.843183      1.206046     -0.792475
Ti       9.34289      9.35955      2.20163         0.223159      0.057059     -0.503277
Ti       9.34718      9.38951     14.49789         0.394529     -0.749605     -0.474145
Ti       9.34106      9.34949      6.28918         0.422798     -0.010167      0.866990
Ti       9.36265      9.34642     10.41823        -0.250641      0.142662     -0.937664
O       1.89728      1.85694      0.43365        -0.228464     -0.041085     -0.883185
O       1.87336      1.87892     12.72479        -0.047565     -0.138266     -0.267964
O       1.83502     13.10227      0.40493         0.040761      0.047420     -0.546150
O       1.83983     13.12783     12.71987         0.013205     -0.089005     -0.697982
O      13.08414      1.83428      0.41503         0.230082      0.073439     -0.458201
O      13.08062      1.82354     12.71273         0.278588      0.201685     -0.466733
O      13.18946     13.09089      0.43033        -0.264331      0.189896     -1.048754
O      13.06175     13.05476     12.76767         0.288984      0.357263     -1.269813
O       1.85534      1.87584      4.54875        -0.102402     -0.030982     -1.423655
O       1.85027     13.13004      4.51760        -0.053035     -0.158820     -0.354876
O      13.12013      1.88603      4.51453        -0.083538     -0.052033     -0.311406
O      13.10113     13.10682      4.54977         0.043780      0.024265     -1.516177
O       1.85219      1.86628      8.61049         0.120703      0.063100      0.220728
O       1.88391     13.12677      8.60256        -0.219909      0.004235     -0.199233
O      13.10337      1.85573      8.62892        -0.032058      0.047072     -0.552976
O      13.13750     13.10744      8.60613        -0.200304      0.018905     -0.125400
O       1.84944      5.65904      0.44479        -0.039990     -0.298533     -1.322663
O       1.86237      5.62856     12.70538         0.016430     -0.206485     -0.505618
O      13.11664      5.62355      0.45262        -0.028968     -0.131113     -0.639098
O      13.10390      5.59508     12.75439         0.129379      0.054264     -1.177921
O       1.91367      5.59296      4.50639        -0.258135      0.081644     -0.061107
O      13.14177      5.62253      4.51663        -0.246395     -0.156894     -0.871932
O       1.84318      5.59660      8.60280         0.215395      0.121323     -0.107219
O      13.12059      5.58697      8.64742         0.047168      0.021921     -1.131152
O       1.88011      9.35989      0.44932        -0.006972      0.063985     -1.492022
O       1.84975      9.36760     12.73265         0.071849      0.106642     -1.179091
O      13.10758      9.33742      0.43904        -0.092627      0.248094     -0.594539
O      13.11915      9.35563     12.73995         0.007194      0.003790     -1.279953
O       1.83198      9.34362      4.51960         0.125844      0.237427     -0.243057
O      13.10634      9.35256      4.53252         0.030642      0.063752     -0.790552
O       1.89454      9.38511      8.59873        -0.132364     -0.225348     -0.186346
O      13.09301      9.32178      8.58480         0.089096      0.315828      0.765242
O       5.60653      1.84992      0.38799        -0.031910      0.002527     -0.188203
O       5.58699      1.83319     12.71676         0.081980      0.270691     -1.302365
O       5.64584     13.11471      0.45784        -0.259915     -0.039830     -1.694858
O       5.58772     13.12320     12.74798         0.130385     -0.068347     -0.882454
O       5.59348      1.89171      4.52454         0.303278     -0.112462     -0.647391
O       5.63811     13.09384      4.52968        -0.125991      0.045962     -0.513815
O       5.59583      1.85314      8.61266         0.194130      0.057177      0.055516
O       5.62051     13.13509      8.63926        -0.028150     -0.014441     -0.771716
O       5.67359      5.63216      0.40180        -0.350037      0.032476     -0.196177
O       5.64484      5.61268     12.72771        -0.133872     -0.032787     -0.282901
O       5.60090      5.62182      4.52404         0.177506     -0.100350     -0.516020
O       5.56914      5.65688      8.60768         0.089709     -0.319060     -0.660317
O       5.58910      9.36435      0.45850         0.024886      0.077699     -1.232281
O       5.58029      9.35782     12.70860         0.156076      0.156538     -0.149994
O       5.61588      9.33192      4.54588         0.004261      0.280042     -1.124549
O       5.63726      9.35581      8.62212        -0.298047      0.036064     -1.106641
O       9.35909      1.92297      0.45903         0.126935     -0.404042     -0.851390
O       9.35843      1.87633     12.74156         0.078313     -0.041098     -1.831906
O       9.33923     13.13281      0.43164         0.194428     -0.022398     -0.167308
O       9.36592     13.11041     12.69007        -0.148943      0.054583      0.458812
O       9.36633      1.84137      4.57013        -0.058090      0.146645     -2.217607
O       9.40731     13.15967      4.52565        -0.101588     -0.221131     -1.243142
O       9.35926      1.86118      8.62266         0.057470      0.026285     -0.380839
O       9.35865     13.12338      8.61888        -0.000589     -0.036786     -0.666515
O       9.36403      5.60782      0.43180        -0.012468     -0.013188     -0.507032
O       9.36256      5.63755     12.69431        -0.038502     -0.311187      0.274758
O       9.35048      5.64312      4.52043         0.068518     -0.160304     -0.946147
O       9.33006      5.64266      8.60082         0.236667     -0.233755     -0.330008
O       9.37740      9.37785      0.42228        -0.080535      0.093198     -0.323908
O       9.40351      9.34387     12.71851        -0.390271      0.253368     -0.145315
O       9.34065      9.36811      4.55641         0.003710     -0.067712     -1.579222
O       9.33133      9.35099      8.61610         0.191423      0.145306      0.027200
O       3.69960      1.89902      2.53602         0.674385     -0.255474     -0.105367
O       3.75901      1.85629     14.81182        -0.360231      0.028712     -0.065210
O       3.72165     13.11690      2.51815         0.192173     -0.239946      0.025929
O       3.72779     13.12509     14.78855         0.388382     -0.143467      0.252854
O      14.98444      1.88128      2.51099         0.317283     -0.157764     -0.000259
O      14.99354      1.87030     14.81231         0.141026     -0.018690      0.055080
O      15.00757     13.12553      2.50644        -0.732933     -0.009331      0.182996
O       0.00334     13.13082     14.77376        -0.842982     -0.083960      0.248112
O       3.78567      1.86373      6.58359        -0.922468      0.200905      0.380439
O       3.70632     13.09720      6.62737         0.599958      0.079885     -0.081885
O       0.01527      1.84713      6.61431        -1.374007      0.200782      0.095804
O      14.96445     13.13587      6.64461         0.681770     -0.107723     -0.108002
O       3.73508      1.82853     10.71676        -0.210741      0.442132     -0.020490
O       3.73329     13.12291     10.71707        -0.048367     -0.014600      0.143503
O       0.00095      1.89506     10.75388        -0.683063     -0.309142     -0.258513
O      14.99386     13.12010     10.69283        -0.465960     -0.060013      0.249007
O       3.77634      5.61849      2.47857        -0.880200      0.124259      0.037841
O       3.69836      5.61752     14.86162         0.753242     -0.031777     -0.238978
O      14.98053      5.59879      2.49956         0.171910     -0.057440      0.122053
O      14.97973      5.62273     14.83883         0.209520     -0.147564     -0.073272
O       3.74526      5.58835      6.61189        -0.257986      0.152146      0.147444
O      14.98438      5.65989      6.61842         0.283452     -0.402105     -0.013416
O       3.75768      5.64119     10.74434        -0.486795     -0.182396     -0.277091
O       0.00297      5.60620     10.73399        -0.392877      0.045487     -0.106374
O       3.73244      9.37473      2.53988        -0.114725      0.065461     -0.048790
O       3.74235      9.36260     14.80069        -0.093404      0.002691      0.223501
O      14.97083      9.36280      2.51095         0.458272      0.079649      0.048567
O      15.00625      9.36657     14.79554        -0.108532     -0.026233      0.186832
O       3.71767      9.36498      6.59692         0.691236      0.016956      0.058002
O      14.99116      9.34113      6.62051         0.377247      0.158007      0.010474
O       3.74734      9.36780     10.70156        -0.538505     -0.019396      0.037843
O      14.99002      9.34164     10.69283        -0.118321      0.169613      0.045627
O       7.43374      1.81648      2.51925         1.368664      0.263882      0.153961
O       7.52161      1.85847     14.81318        -1.049522      0.120314     -0.136852
O       7.47962     13.10406      2.47953         0.384738      0.254784      0.412836
O       7.48572     13.09729     14.85010        -0.017257      0.042659     -0.252426
O       7.49414      1.85524      6.62042         0.142007     -0.019211      0.080194
O       7.47918     13.14861      6.60034         0.590149     -0.205611     -0.035014
O       7.49234      1.82914     10.75363         0.184685      0.403875     -0.250399
O       7.45206     13.14031     10.73777         0.533053     -0.207065      0.043944
O       7.50852      5.59700      2.47846        -0.501349      0.135123      0.442000
O       7.48024      5.63330     14.83049         0.528225     -0.277216     -0.209244
O       7.48354      5.62347      6.61701        -0.253075     -0.188831     -0.024968
O       7.53437      5.64852     10.67707        -1.587098     -0.257706      0.223120
O       7.46664      9.35412      2.53874         0.230606      0.200921     -0.027285
O       7.47203      9.37183     14.82795         0.575218      0.285728     -0.012045
O       7.46378      9.34134      6.67019         0.120979      0.320232     -0.411537
O       7.48012      9.33468     10.71572         0.087740      0.371531      0.202072
O      11.24988      1.87650      2.49525        -0.767626     -0.157499      0.288181
O      11.27634      1.83476     14.78043        -0.875031      0.121642      0.313995
O      11.26716     13.09071      2.46984        -0.578674      0.142452      0.167388
O      11.23618     13.13393     14.81633        -0.165594      0.057412      0.238677
O      11.22854      1.89357      6.60077         0.146403     -0.161085      0.103056
O      11.27844     13.13188      6.64126        -1.096851     -0.103833     -0.089355
O      11.24305      1.86842     10.77771        -0.430926     -0.095296     -0.515235
O      11.20564     13.07603     10.71278         0.697312      0.310598     -0.112684
O      11.22193      5.61294      2.46895         0.664882     -0.118554      0.494142
O      11.22861      5.61786     14.82187        -0.120479     -0.026160     -0.034853
O      11.25137      5.62307      6.61735        -0.333216     -0.226973     -0.113066
O      11.24548      5.60290     10.73989         0.218507     -0.056690     -0.177861
O      11.21476      9.41418      2.55446         0.238451     -0.284745     -0.068710
O      11.21136      9.35960     14.81518         0.225713      0.206643      0.161113
O      11.25192      9.39227      6.61557        -0.431467     -0.219325     -0.097845
O      11.20379      9.38196     10.72973         1.242149     -0.066017     -0.098710
O       1.86338      3.75093      2.51232        -0.126667     -0.313916     -0.082003
O       1.87585      3.72110     14.82829        -0.162924      0.336521      0.020484
O       1.89335     14.95686      2.51204        -0.359729      1.003616      0.005816
O       1.86082     14.99117     14.82937        -0.009017      0.306451     -0.030101
O      13.08765      3.69618      2.52324         0.107279      1.216559      0.062780
O      13.10059      3.75775     14.79922         0.141520     -0.510400      0.167105
O      13.11880      0.00604      2.54170        -0.042924     -0.852890     -0.118762
O      13.11210     14.99647     14.75801         0.204212     -0.131368      0.416191
O       1.83194      3.72134      6.60733         0.177947      0.800959      0.269547
O       1.86597      0.02825      6.59028         0.033511     -1.406585      0.274036
O      13.13256      3.73234      6.66287         0.018587      0.071289     -0.242883
O      13.14927     15.00481      6.60577        -0.348929      0.071221      0.004195
O       1.82827      3.76068     10.72501         0.502344     -0.611367     -0.103952
O       1.87123     14.95161     10.69965        -0.196232      1.430930      0.192888
O      13.09149      3.73698     10.70686         0.219269     -0.169187      0.101385
O      13.10357     14.97044     10.67881        -0.033612      0.746044      0.234333
O       1.84788      7.48815      2.48770         0.077846      0.120813      0.208774
O       1.85531      7.46301     14.80157         0.044104      0.659317      0.069454
O      13.13963      7.49903      2.54144        -0.390445     -0.327246     -0.084670
O      13.08012      7.51052     14.83894         0.174692     -0.633082     -0.055934
O       1.84712      7.47419      6.56342         0.267426      0.421236      0.315031
O      13.09590      7.46469      6.67970         0.142068      0.479505     -0.408048
O       1.85673      7.49917     10.74644         0.057517     -0.336419     -0.270069
O      13.10051      7.47664     10.71640         0.091079      0.190431      0.017670
O       1.82742     11.24609      2.51035         0.189573     -0.351470      0.125757
O       1.85265     11.24310     14.84864         0.128239     -0.067708     -0.179947
O      13.13034     11.21623      2.52887         0.003123      1.055830      0.018149
O      13.10449     11.22263     14.77971         0.050094      0.647943      0.469103
O       1.85468     11.27746      6.62492        -0.164189     -1.197710     -0.140543
O      13.12542     11.22782      6.61698         0.057704      0.417235      0.001057
O       1.84108     11.24538     10.68651         0.086413     -0.401873      0.232881
O      13.07795     11.24750     10.71764         0.346358     -0.457476     -0.075435
O       5.60326      3.73764      2.47616         0.241432     -0.064224      0.178947
O       5.60730      3.75350     14.82040         0.002796     -0.434450     -0.218136
O       5.58396     15.00403      2.51872         0.014594     -0.256357      0.040266
O       5.62014     15.00099     14.80774         0.084767     -0.209229     -0.038506
O       5.60757      3.71828      6.62068         0.307401      0.626598      0.139167
O       5.55801     14.96797      6.59933         0.448888      0.253844      0.110471
O       5.61548      3.76556     10.73446         0.077912     -0.776924     -0.170113
O       5.62680      0.00538     10.71797        -0.167628     -0.370742      0.065366
O       5.62726      7.49207      2.54076        -0.089516      0.013508     -0.153091
O       5.63095      7.50953     14.80557        -0.213549     -0.400371      0.162691
O       5.63617      7.48630      6.61650        -0.450226      0.101126     -0.061892
O       5.63650      7.50778     10.70544        -0.253971     -0.756973      0.029231
O       5.61857     11.27490      2.55764        -0.087697     -1.137001     -0.094184
O       5.60953     11.20258     14.81620        -0.033155      1.393515      0.165667
O       5.59638     11.24841      6.67911         0.093021     -0.525617     -0.390921
O       5.58938     11.24181     10.71008         0.209936     -0.056639      0.121134
O       9.33250      3.73451      2.52717         0.138672     -0.261488      0.254705
O       9.34953      3.69601     14.86910         0.241356      1.228385     -0.394681
O       9.35545     14.99953      2.54962         0.182068     -0.074804     -0.130647
O       9.33391      0.01423     14.84276         0.291981     -0.884209     -0.054415
O       9.36155      3.77726      6.62604        -0.091929     -0.934598     -0.088731
O       9.37899     14.98613      6.60898         0.038052      0.168246      0.030773
O       9.35095      3.76932     10.70636         0.098152     -1.558911      0.034157
O       9.33939     14.96628     10.69484         0.261416      1.129091      0.069792
O       9.37263      7.49681      2.50924        -0.028706      0.069617      0.104430
O       9.32062      7.51398     14.79798         0.213509     -0.657059      0.047382
O       9.35084      7.49547      6.62308         0.142833     -0.168195     -0.121504
O       9.38024      7.49239     10.71084         0.073667     -0.205064      0.137517
O       9.33122     11.22776      2.51925         0.136492      0.637197      0.135418
O       9.38997     11.27982     14.85817        -0.241684     -0.615247     -0.228263
O       9.36537     11.20816      6.59064        -0.076947      1.190520      0.081563
O       9.32793     11.22862     10.73565        -0.118925      0.381807     -0.091837
