  # total energy = -7879.28082291 
CRSYTAL
PRIMVEC
    15.3600000000000000    0.0000000000000000    0.0000000000000000
     0.0000000000000000   15.3600000000000000    0.0000000000000000
     0.0000000000000000    0.0000000000000000    17.440000000000000
PRESSURE
2.23921 2.09238 -6.12171 -0.234827 -0.569513 0.019713
PRIMCOORD
320 1
Pb       3.79865      3.85724      4.39415         0.283772     -0.167855      0.311006
Pb       3.98305      3.79651     17.33557        -0.629649     -0.243144      0.875583
Pb       3.80903     15.33032      4.34698        -0.194322     -0.111843      0.464484
Pb       3.92013      0.03811     17.39452        -0.747110     -0.354659      0.227341
Pb      15.32050      3.83073      4.41896         0.393768     -0.274079     -0.020244
Pb       0.11718      3.84980      0.04625        -0.183830      0.086809      0.308039
Pb       0.04007     15.29857      4.31598        -0.183231      0.187607      0.558507
Pb      15.10840     15.30892      0.00276         0.696750     -0.276878      0.007341
Pb       3.76287      3.95953      8.53040        -0.078582     -0.451010      1.526694
Pb       3.82387     15.33235      8.83092         0.015089      0.095533     -0.244985
Pb      15.05083      3.90594      8.60045         1.273000      0.306115      0.776109
Pb      15.28179      0.17743      8.67005        -0.373455     -0.938252      1.105787
Pb       3.88830      3.75815     12.93120        -0.500802      0.276948      0.621425
Pb       3.76027     15.21947     12.95066        -0.002204      0.329997      0.559757
Pb      15.32713      3.68553     13.10644         0.305463      0.491391      0.466555
Pb       0.01278      0.03432     12.89950         0.000324     -0.286252      1.062032
Pb       3.93439      7.69461      4.24922        -0.493941     -0.487128      0.670149
Pb       3.70189      7.65728      0.03662         0.191541     -0.138500     -0.001998
Pb       0.19827      7.68691      4.29314        -0.500319      0.232452      0.376459
Pb      15.33283      7.80678     17.31763        -0.552195     -0.914533      1.078605
Pb       3.96787      7.61015      8.69747        -0.547175      0.314392      0.720023
Pb      15.33717      7.62904      8.66535         0.055087      0.033864      0.869339
Pb       3.82219      7.64521     13.06772        -0.378317      0.091401      0.029030
Pb       0.07250      7.69977     13.08745        -0.088848     -0.206215      0.668388
Pb       3.64674     11.47574      4.30287         0.475977      0.114437      0.271532
Pb       4.01513     11.30327     17.30068        -0.340182      0.589436      0.811298
Pb       0.17035     11.66056      4.14957        -1.022738     -0.704630      1.270829
Pb      15.27879     11.45892     17.30359        -0.278188      0.120918      1.184711
Pb       3.78298     11.60628      8.70943        -0.043368     -0.255619      0.423599
Pb      15.35573     11.35233      8.64169        -0.156253      0.628865      1.413027
Pb       3.97872     11.50909     12.96428        -0.769781     -0.384489      0.883500
Pb       0.11662     11.47275     13.13546         0.043933     -0.046957      0.115923
Pb       7.68898      3.71652      4.39515        -0.092449      0.393924      0.484177
Pb       7.71623      3.91783     17.25313        -0.332502     -0.738051      1.283050
Pb       7.67879      0.05535      4.31171         0.194307     -0.178010      1.252069
Pb       7.40583     15.33814     17.30796         0.751512     -0.161192      0.612076
Pb       7.65532      3.81668      8.67891         0.037711      0.024775      0.193763
Pb       7.68767     15.25352      8.58801         0.015990      0.490076      0.567071
Pb       7.82330      3.97714     13.25531        -0.263968     -0.623374     -0.322405
Pb       7.71323      0.13284     13.00871        -0.600664     -0.237502      1.030770
Pb       7.53235      7.52893      4.25980         0.895587      0.177461      0.448922
Pb       7.64268      7.63603     17.42300        -0.194736      0.252145      0.710398
Pb       7.59319      7.86090      8.60697         0.172421     -0.645117      0.738524
Pb       7.62335      7.61011     12.97621         0.029515      0.522302      0.222423
Pb       7.66975     11.39894      4.34936         0.230682     -0.050671      0.476354
Pb       7.56216     11.64694     17.29256        -0.108080     -0.402843      0.892152
Pb       7.72844     11.47435      8.68070        -0.481988      0.118079      0.221611
Pb       7.88627     11.65749     13.06323        -1.169968     -0.838766      0.495633
Pb      11.59264      3.75084      4.35938        -0.449252      0.065951      0.090175
Pb      11.53661      3.82334      0.02495         0.121632      0.108116      0.498443
Pb      11.57611      0.01832      4.22889        -0.115999     -0.504297      0.936326
Pb      11.41794     15.30077     17.18673         0.154428     -0.024116      2.311879
Pb      11.58584      4.05488      8.65755        -0.645701     -0.531519      0.956470
Pb      11.48264     15.27250      8.62328         0.013136     -0.170454      0.647621
Pb      11.53701      3.70464     13.25908        -0.044677      0.648926     -0.378154
Pb      11.41003     15.33449     13.02167         0.465997     -0.215262      0.501856
Pb      11.59019      7.69561      4.20102        -0.595453     -0.126444      0.637852
Pb      11.41077      7.57907     17.43581         0.800161      0.335626      0.563551
Pb      11.56280      7.67836      8.62963        -0.157273     -0.128294      0.908583
Pb      11.40586      7.71602     12.98369         0.103888     -0.722712      1.099034
Pb      11.57110     11.37701      4.39399        -0.252520      0.705211     -0.038641
Pb      11.37560     11.49271     17.33745         0.335982     -0.128208      0.858021
Pb      11.48952     11.51149      8.83874         0.405576      0.365216     -0.193239
Pb      11.47538     11.45442     12.93338        -0.034202      0.452770      1.295909
Ti       1.95263      1.88104      2.41243        -0.045492      0.311734     -1.918151
Ti       1.91200      1.84729     15.46115        -0.234829     -0.062362     -0.913367
Ti       1.89294     13.43336      2.19439         0.583408      0.234760     -2.087471
Ti       1.87977     13.37503     15.49171        -0.083778      0.789200     -0.451626
Ti      13.49843      1.88868      2.38450        -0.297565     -0.171788     -0.865863
Ti      13.44777      1.87855     15.49770         0.515200      0.033941     -1.258181
Ti      13.40253     13.40773      2.35636        -0.921024     -0.009579     -1.827076
Ti      13.33584     13.33487     15.40586         0.671728      0.161223     -1.696337
Ti       1.90053      1.91346      6.82822         0.152661      0.661657     -1.413971
Ti       1.79264     13.47701      6.87888         0.549716     -0.457366     -1.601672
Ti      13.34348      1.91798      6.70843         0.284491     -0.700398     -1.660469
Ti      13.40625     13.37352      6.79385        -0.382445      0.743287     -1.651580
Ti       1.95155      1.93633     11.00672        -0.601374      0.041659     -2.099685
Ti       1.84429     13.37144     11.06372         0.247367     -0.592603     -1.947556
Ti      13.39600      1.89447     11.08021        -0.391424     -0.097389     -1.075449
Ti      13.40765     13.39963     11.17936        -0.387333      0.107032     -2.400575
Ti       1.90324      5.64004      2.41220         0.339336      0.918508     -2.028364
Ti       1.87085      5.69723     15.46980        -0.533359      0.318760     -1.469173
Ti      13.45418      5.72341      2.41713         0.136416      0.035258     -2.343397
Ti      13.42777      5.66653     15.52206         0.254881      1.561248     -1.528292
Ti       1.89570      5.81414      6.74610        -0.735070     -0.793782     -1.521431
Ti      13.37432      5.83171      6.55944         0.162048      0.074621     -1.259413
Ti       1.85455      5.73387     11.14576        -0.206615      0.331902     -2.381538
Ti      13.41416      5.70194     11.30991        -0.636352      0.213670     -1.036417
Ti       1.90064      9.54782      2.28050        -0.318566     -0.185788     -1.787585
Ti       1.83938      9.59518     15.47479         0.473539     -0.620252     -2.194856
Ti      13.42289      9.58974      2.38479         0.964661     -0.041962     -2.020794
Ti      13.30098      9.55933     15.40875         0.065302     -0.955666     -1.307442
Ti       1.91276      9.56338      6.73756        -0.093687      0.528992     -1.841600
Ti      13.42855      9.62214      6.71163        -0.038921     -0.381498     -1.822334
Ti       1.89350      9.56772     11.09604        -0.376417     -0.035139     -1.145946
Ti      13.39956      9.56965     11.21368         0.886731     -0.766236     -2.060518
Ti       5.78164      1.84857      2.45494        -0.284504      1.271968     -2.142452
Ti       5.75755      1.87449     15.32537        -0.434948      0.029772     -0.780265
Ti       5.73788     13.37127      2.47629        -0.538516     -0.478961     -2.122501
Ti       5.63782     13.36511     15.27491         0.880137     -0.223930     -1.003710
Ti       5.72871      1.92189      6.82735         0.354753     -0.149509     -2.216596
Ti       5.69092     13.42414      6.74693        -0.275021     -0.013513     -1.915301
Ti       5.78548      1.89740     11.03769        -0.076329      0.036798     -1.078242
Ti       5.78233     13.45065     11.09822        -0.998437     -1.007736     -1.242977
Ti       5.71836      5.62758      2.34075        -0.206378      0.224306     -1.669063
Ti       5.65829      5.74668     15.46744        -0.279807     -0.018971     -1.376077
Ti       5.76876      5.76183      6.71903         0.348116     -0.075733     -1.517982
Ti       5.74201      5.70813     11.10104        -0.499636      0.239813     -2.426366
Ti       5.74622      9.58524      2.40838         0.320522     -0.452998     -2.529616
Ti       5.73075      9.45332     15.35801        -0.778108      0.867880     -1.390834
Ti       5.67624      9.62746      6.68266         0.064454     -0.141498     -1.795733
Ti       5.69581      9.57608     11.12941         0.550752      0.196984     -1.123865
Ti       9.62339      1.86681      2.35496         0.308096     -0.155427     -2.154020
Ti       9.59032      1.84897     15.50234        -0.847111      0.241602     -1.004055
Ti       9.52360     13.38792      2.42713         0.979790     -0.336335     -1.625160
Ti       9.53192     13.40488     15.40285        -0.635656      0.129340     -1.261700
Ti       9.63056      1.95474      6.77172        -0.944929     -0.307727     -1.718316
Ti       9.53903     13.40192      6.69278         0.653109     -0.022414     -1.075396
Ti       9.56459      1.92648     11.06524        -0.363804      0.463480     -1.399311
Ti       9.51261     13.48297     11.09470         0.878283     -0.332471     -2.241107
Ti       9.62762      5.63997      2.42591        -1.013268      1.011599     -1.349743
Ti       9.59125      5.76109     15.47759         0.564254     -0.300457     -1.333299
Ti       9.56739      5.75509      6.72112        -0.720193     -0.127938     -2.080575
Ti       9.58770      5.65321     11.12018         1.251511      0.354360     -1.029452
Ti       9.61942      9.55452      2.32052        -1.244438     -0.703874     -0.709606
Ti       9.43504      9.55771     15.42186         1.083287      0.236734     -1.316624
Ti       9.64473      9.60961      6.76759        -0.625820     -0.611624     -2.009275
Ti       9.53139      9.52554     11.07126        -1.084951     -0.248890     -1.106372
O       1.95883      1.98322      0.57585        -0.038845     -0.293272      1.698336
O       1.80665      1.83062     13.62612         0.452230      0.069834      0.965243
O       1.97105     13.41966      0.38848        -0.345149      0.152281      1.391326
O       1.82588     13.38011     13.66538         0.004028      0.179889      1.019345
O      13.42462      1.80149      0.58524         0.275829      0.149592      0.109278
O      13.43424      1.95673     13.66544         0.051886     -0.264858      1.472654
O      13.35247     13.43190      0.49415         0.041632      0.125051      1.606335
O      13.34835     13.34196     13.56695        -0.036597      0.043615      1.224873
O       1.95507      1.89649      4.96635        -0.207113     -0.034502      1.507114
O       1.85234     13.39826      4.96572        -0.176886     -0.019350      1.519523
O      13.44148      1.89787      4.84684        -0.273542      0.287636      1.902888
O      13.48566     13.41873      4.94411        -0.088071     -0.160618      1.430275
O       1.80420      1.93057      9.13537         0.373052     -0.075933      1.835196
O       1.88901     13.24706      9.20596         0.087422      0.558115      1.264179
O      13.31172      1.86534      9.24371         0.227466      0.326233      1.569325
O      13.26878     13.36872      9.25412        -0.046416      0.063344      1.951503
O       1.90096      5.66194      0.53926         0.152547      0.092453      1.681916
O       1.82093      5.69299     13.62295         0.456510      0.202389      1.101835
O      13.38168      5.68532      0.52989         0.089106     -0.081069      2.088155
O      13.30632      5.60289     13.65829         0.346155      0.104831      1.276899
O       1.89806      5.75438      4.90125        -0.187026      0.110387      1.267296
O      13.27029      5.80188      4.74649         0.443989     -0.212292      0.777216
O       1.77722      5.78001      9.24160         0.052528     -0.015116      1.517059
O      13.34922      5.65101      9.45142         0.068458      0.150792      0.903828
O       1.93228      9.52860      0.38324         0.072237      0.080255      1.839954
O       1.78232      9.54036     13.57715         0.236396      0.208731      1.968695
O      13.57068      9.59021      0.56699        -0.750191      0.116024      1.452371
O      13.22877      9.54284     13.54637         0.416745      0.280057      0.909446
O       1.80435      9.69343      4.80239         0.477236     -0.274075      1.958266
O      13.29705      9.63348      4.79942         0.335076     -0.220524      1.906439
O       1.82849      9.52581      9.29060        -0.062749      0.181503     -0.029842
O      13.45159      9.47348      9.28801        -0.282339      0.409103      2.268576
O       5.80828      1.88272      0.48885        -0.262765     -0.346513      2.193899
O       5.74674      1.84510     13.52754        -0.161057      0.207075      0.942302
O       5.84699     13.29166      0.51748        -0.346376      0.446421      2.123909
O       5.71327     13.28626     13.46306        -0.254237      0.558457      0.730313
O       5.82961      1.97186      4.92322        -0.437451     -0.382068      1.450178
O       5.71471     13.40689      4.90377        -0.450729      0.028785      1.180620
O       5.67137      1.91458      9.21857         0.586314     -0.134040      0.877133
O       5.63636     13.37512      9.25543         0.307332      0.137731      0.912876
O       5.56417      5.60666      0.41552         0.873651      0.217926      1.819244
O       5.57988      5.74305     13.60824         0.333660      0.052842      0.733955
O       5.74139      5.76448      4.86521        -0.097603      0.006116      1.513723
O       5.64958      5.79574      9.17583         0.408303     -0.206762      2.123111
O       5.76672      9.61079      0.41155        -0.301343      0.034421      2.204523
O       5.59572      9.49260     13.47932         0.508238     -0.368850      1.572248
O       5.56473      9.51647      4.80661         0.529221      0.383097      1.434202
O       5.70354      9.54891      9.27634        -0.044933      0.023880      0.847115
O       9.58662      1.80471      0.48409        -0.090329      0.375746      1.728699
O       9.44296      1.83295     13.67754         0.396610      0.097327      0.979850
O       9.52850     13.35459      0.56727        -0.217788      0.080680      1.602887
O       9.52077     13.45495     13.56847         0.122932     -0.108054      0.668618
O       9.49190      1.88937      4.91575         0.510179      0.346234      1.185774
O       9.54572     13.24369      4.92069        -0.191733      0.408982      0.250844
O       9.44247      1.88426      9.25490         0.398336      0.209071      0.875944
O       9.52702     13.51172      9.20595        -0.085386     -0.325724      1.875374
O       9.55833      5.69161      0.52789        -0.025594     -0.123194      1.188752
O       9.65141      5.66191     13.63931        -0.753753      0.321198      1.750756
O       9.40783      5.58648      4.88271         0.744595      0.605703      1.083590
O       9.79692      5.66925      9.32600        -0.665971     -0.093355      0.600270
O       9.61087      9.40245      0.52084        -0.404398      0.679233      0.764591
O       9.50569      9.58663     13.58343        -0.126234     -0.193768      1.418833
O       9.53477      9.60060      4.93731         0.587143      0.135939      1.508578
O       9.52780      9.45923      9.24468         0.070303      0.564477      0.644060
O       3.88334      1.92389      2.80200        -0.524907     -0.406389     -0.089187
O       3.85287      1.78992     15.83049        -0.054736      1.052568     -0.554251
O       3.78910     13.39157      2.68438         0.072386      0.279093      0.211536
O       3.83306     13.40429     15.70619        -1.083830     -0.573728      0.005877
O       0.04221      1.98221      2.84661         0.017695     -0.055702     -0.358050
O      15.35886      1.92110     15.90998        -0.687888     -0.464477     -0.347184
O      15.33491     13.50870      2.62658         0.187802     -0.401307     -0.053989
O      15.21612     13.38350     15.86929         0.729851      0.356912     -0.509683
O       3.81859      1.93838      7.16017        -0.834604     -0.143950     -0.319187
O       3.72191     13.53566      7.15646         0.259400     -0.641680     -0.053921
O      15.19493      1.88320      7.15408         0.644273      0.702670     -0.637509
O      15.26062     13.45835      7.26794         0.494206     -0.406079     -0.573233
O       3.81077      1.82909     11.34047         0.080012      0.057471      0.341815
O       3.74390     13.31377     11.44529         0.943618      0.479540     -0.156643
O      15.33418      1.95467     11.41192        -0.248179     -0.783076     -0.227368
O      15.32105     13.46573     11.45693        -0.321477     -0.356684     -0.094412
O       3.80049      5.75958      2.77687         0.297402     -0.100794     -0.161679
O       3.76152      5.74266     15.87427         0.391859      0.177964     -0.501763
O       0.02598      5.68554      2.81819        -0.976160     -0.123606     -0.126563
O      15.34698      5.77828     15.90340        -0.192197     -0.106307     -0.356365
O       3.78744      5.77325      7.06580         0.029862      0.315736     -0.297654
O      15.23265      5.69806      7.06006         0.299993      0.368587     -0.319750
O       3.72257      5.72227     11.36282         1.422218      0.071502      0.470635
O      15.32022      5.73544     11.60037        -0.439021     -0.114995     -0.363310
O       3.78099      9.49533      2.71327        -0.051376      0.576909     -0.408979
O       3.85048      9.57200     15.75126        -0.504413     -0.106084     -0.201142
O       0.04232      9.57360      2.68090        -0.806656      0.044849      0.071160
O      15.26605      9.58069     15.84657         0.032393      0.163722     -0.790747
O       3.79235      9.41350      7.07012        -0.381801      0.767660     -0.197110
O      15.30556      9.63178      7.12325        -0.107970     -0.589161     -0.624987
O       3.70814      9.58110     11.45975         2.113269     -0.107616     -0.031835
O       0.04207      9.51977     11.59237        -2.708510      0.514636     -0.494554
O       7.70531      1.93097      2.76244        -0.088040     -0.244484     -0.294542
O       7.63331      1.80674     15.78811        -0.272833      0.262076     -0.248469
O       7.55267     13.38459      2.85508         1.399554      0.032962     -0.369611
O       7.59577     13.43416     15.63356         0.331708     -0.112491      0.374039
O       7.63062      1.99446      7.07584         0.162117     -0.197696      0.397307
O       7.61495     13.37769      7.08086        -0.387254     -0.100344      0.157280
O       7.64060      1.95572     11.47262        -0.312866     -0.210827     -0.152595
O       7.61436     13.39598     11.45464         0.740643      0.183612     -0.306528
O       7.55786      5.68926      2.73394         1.048968     -0.269591     -0.401190
O       7.59419      5.74307     15.79363         0.878312      0.285482     -0.340984
O       7.65912      5.68355      7.05932        -0.333254      0.146883      0.327609
O       7.72776      5.71021     11.45637        -2.144689     -0.323972      0.209636
O       7.58026      9.57661      2.71648         0.864335     -0.064541      0.010387
O       7.58536      9.58737     15.74291         0.954876     -0.630515     -0.089754
O       7.60119      9.68607      7.03745         0.122973     -0.243163      0.244118
O       7.62483      9.47858     11.38475         0.042404      0.296609      0.231809
O      11.57900      1.86478      2.68980        -1.159142     -0.151583      0.277587
O      11.48772      1.89657     15.84049         0.294740      0.329239     -0.486427
O      11.49601     13.47872      2.77525        -0.230253     -0.064953     -0.187975
O      11.40479     13.42641     15.83396         0.305422     -0.726511     -0.567047
O      11.49823      1.92290      7.06443        -0.168640     -0.245322     -0.043389
O      11.41711     13.39690      7.06814         0.672223     -0.015003      0.247983
O      11.41189      1.85874     11.54517         0.884027      0.041582     -0.371903
O      11.46036     13.43687     11.47547        -0.746304      0.239281     -0.156009
O      11.45853      5.71883      2.71170         0.553069      0.130667      0.039919
O      11.50980      5.72988     15.92530        -0.946722     -0.317586     -0.381589
O      11.46464      5.76985      7.05518         0.438367      0.687601     -0.147209
O      11.40504      5.67083     11.65050         1.078903     -0.123129     -0.382244
O      11.46880      9.58745      2.64354         0.707662     -0.342754      0.231799
O      11.51026      9.59538     15.91296        -1.171199     -0.219153     -0.443063
O      11.54135      9.57434      7.17493        -0.535695     -0.097421     -0.390933
O      11.36352      9.61262     11.49742         1.271167     -0.311612     -0.672000
O       1.95549      3.82799      2.83978        -0.152469     -0.693416      0.005248
O       1.82909      3.84765     15.85705         0.523385     -0.811877     -0.456718
O       1.85706     15.33519      2.72574         0.508303      0.052647     -0.109114
O       1.93631     15.35877     15.89315        -0.372236     -0.586447     -0.382402
O      13.34824      3.78594      2.73456         0.460626      0.575359      0.191549
O      13.48576      3.85614     15.90355        -0.510261     -1.644104     -0.097038
O      13.52286      0.01781      2.84688        -0.232180     -0.645025     -0.513259
O      13.31269     15.28308     15.71327         0.515848      0.836475      0.174756
O       1.81966      3.88233      7.11829         0.020716     -0.595332     -0.381236
O       1.80725      0.00494      7.21932         0.104012      0.160394     -0.420999
O      13.27206      3.97694      6.99374         0.501137     -1.756194     -0.142736
O      13.35678     15.31249      7.16623        -0.087340      0.637895     -0.512223
O       1.91080      3.78815     11.43183        -0.048885     -0.233577      0.044511
O       1.96786     15.28430     11.36918        -0.564166      0.674157      0.043295
O      13.42178      3.75469     11.64010        -0.479444     -0.204890     -0.760465
O      13.36356     15.30622     11.55847         0.077969      0.971280     -0.453480
O       1.86431      7.64739      2.73399         0.289144      0.087472     -0.394568
O       1.83487      7.74064     15.81144         0.537855     -1.225051     -0.139699
O      13.43501      7.62862      2.68207        -0.121398      0.397923      0.126846
O      13.37508      7.65543     15.84510         0.065765      0.087781     -0.216821
O       1.77953      7.69058      7.05678        -0.101389     -0.237116     -0.113940
O      13.43992      7.65293      7.08252        -0.297925      0.521186     -0.278530
O       1.87020      7.69754     11.45719        -0.063065     -1.487675      0.294068
O      13.29016      7.63649     11.54087         0.313516      0.356756     -0.241897
O       1.82008     11.52109      2.54173         0.722838     -0.002744      0.211721
O       1.75148     11.43565     15.82804         0.724977      1.351261     -0.496411
O      13.32373     11.53200      2.70572         0.565655     -0.138850     -0.055707
O      13.37651     11.44793     15.77262        -0.243404      0.593429      0.075063
O       1.86565     11.43870      7.17535         0.317750      0.426978     -0.552333
O      13.34443     11.45648      7.16500         0.016418      0.291380     -0.226689
O       1.84631     11.49239     11.49520        -0.278551      0.326648     -0.093731
O      13.30382     11.49666     11.46552         0.518698     -0.753848     -0.247268
O       5.67881      3.80528      2.80662         0.119756     -0.388037     -0.360385
O       5.79410      3.82398     15.68692        -0.412322     -0.668711     -0.099836
O       5.73936      0.01399      2.89781        -0.013540     -0.707947     -0.872101
O       5.58925     15.26077     15.72173         0.994108      0.652322     -0.093567
O       5.72095      3.86772      7.10444        -0.232235     -0.083032     -0.050585
O       5.62721     15.33054      7.12171         0.564820      0.220093     -0.036514
O       5.65022      3.79072     11.38317         0.327581      0.623824      0.043948
O       5.75976     15.29867     11.43233        -0.345651      0.402613     -0.245944
O       5.78576      7.60850      2.68243        -0.662093      0.190824     -0.203418
O       5.72039      7.64216     15.89263        -0.038615     -0.270778     -0.580447
O       5.73123      7.69628      7.06134         0.272610     -0.321028     -0.074347
O       5.74822      7.61027     11.42400        -0.434917     -0.376790      0.133725
O       5.72003     11.42833      2.78181        -0.467163      1.079065     -0.141729
O       5.78967     11.45873     15.71357        -0.421557      0.093308     -0.252247
O       5.61365     11.49476      7.04793        -0.139190      0.141958      0.074553
O       5.79062     11.45645     11.50106        -0.214507      0.034251     -0.595757
O       9.68246      3.77244      2.73607        -0.393404     -0.382009     -0.155042
O       9.57266      3.80906     15.73215        -0.242675      0.040227      0.190630
O       9.57794     15.29991      2.83459        -0.341115      0.257514     -0.451510
O       9.52341     15.29206     15.79585         0.134304      0.192241     -0.240388
O       9.65887      3.84427      7.11112        -0.441296     -0.166338      0.197165
O       9.49649     15.35059      7.06244         0.155127      0.055046     -0.113984
O       9.52077      3.76945     11.63763         0.177344     -0.056482     -0.514868
O       9.44832     15.35978     11.48169         0.526266     -0.077234     -0.267909
O       9.53498      7.62534      2.77092         0.050074     -0.079955     -0.161752
O       9.58656      7.66152     15.89984        -0.378570     -0.242962     -0.732465
O       9.48184      7.64652      7.14293         0.494060      0.454311     -0.341288
O       9.47700      7.62205     11.50591         0.612863      0.243883     -0.286399
O       9.60336     11.42680      2.75035        -0.436792      0.872855     -0.146741
O       9.53403     11.46399     15.72221         0.059602      0.219800      0.102826
O       9.57831     11.48476      7.13295        -0.015647     -0.214626      0.361071
O       9.52145     11.54256     11.40004         0.025909     -0.255077     -0.325051
