  # total energy = -7879.83557096 
CRSYTAL
PRIMVEC
    15.6000000000000000    0.0000000000000000    0.0000000000000000
     0.0000000000000000   15.6000000000000000    0.0000000000000000
     0.0000000000000000    0.0000000000000000    17.640000000000000
PRESSURE
-3.55359 -3.56993 -0.015859 -0.092464 0.775245 0.005089
PRIMCOORD
320 1
Pb       3.82958      3.90066      4.34612        -0.193639      0.037329     -0.258624
Pb       3.90570      3.89286     17.55647        -0.109604      0.334116     -0.012833
Pb       3.87715      0.08926      4.32249         0.193244     -0.417002      0.153916
Pb       3.85425     15.54057     17.58052         0.019860      0.401514     -0.070826
Pb      15.56198      3.82862      4.39795         0.280332      0.470147     -0.503768
Pb      15.53209      3.92751     17.55550         0.301297      0.149101     -0.205829
Pb       0.00848      0.07479      4.41912         0.151668     -0.268127     -0.138494
Pb      15.54621     15.56163     17.51141         0.313165      0.255136     -0.223964
Pb       3.91236      3.85702      8.76201        -0.234862     -0.222750     -0.105584
Pb       3.95235     15.51402      8.71395        -0.315262      0.547310      0.332645
Pb      15.55341      3.92149      8.77977         0.507651     -0.281269     -0.045419
Pb       0.02800     15.41977      8.70158        -0.287493      0.803446      0.157761
Pb       3.88502      3.79372     13.27562        -0.051643     -0.105628     -0.114087
Pb       3.80322     15.52565     13.14942         0.136768      0.408680      0.385476
Pb      15.52136      3.86944     13.01746         0.269615     -0.116826      1.057496
Pb      15.55047     15.57281     13.11687         0.134589     -0.109505      0.121997
Pb       3.87948      7.75009      4.51702        -0.208529      0.123344     -0.504423
Pb       3.86000      7.70170     17.63970         0.267144     -0.224790     -0.360881
Pb      15.58232      7.91600      4.28978        -0.069806     -0.697884      0.291377
Pb       0.01960      7.73371     17.55826        -0.239636     -0.403369      0.402493
Pb       3.95179      7.73760      8.68362        -0.231899      0.252532      0.198146
Pb      15.52405      7.67796      8.79075         0.475155      0.154245      0.082339
Pb       3.80440      7.63478     13.15570         0.790876      0.901190      0.520904
Pb       0.08854      7.74017     13.20281        -0.209018      0.278382     -0.039301
Pb       3.87710     11.74616      4.37850         0.092901      0.214143     -0.822767
Pb       3.83906     11.71485      0.05002        -0.146906     -0.410340     -0.104757
Pb      15.56898     11.75700      4.34702         0.174270     -0.146532      0.082579
Pb      15.56533     11.74034     17.49033        -0.320191     -0.169716      0.311288
Pb       3.81976     11.58318      8.76463         0.816227      0.082725      0.123180
Pb      15.57881     11.72035      8.72193        -0.596314     -0.462117      0.084686
Pb       3.84197     11.70718     13.15879        -0.063713     -0.379200     -0.407829
Pb      15.49972     11.65468     13.06348         0.014613      0.009679      0.353862
Pb       7.66741      3.92556      4.34707         0.713948     -0.102997      0.097162
Pb       7.72792      3.90028     17.56461         0.295545      0.349341      0.297621
Pb       7.75102      0.16022      4.35317         0.001551     -0.543909     -0.216500
Pb       7.82750      0.08896     17.46836        -0.041456     -0.475582      0.387142
Pb       7.66133      3.78906      8.88263         0.363554      0.151221     -0.200166
Pb       7.77140     15.52316      8.89434        -0.005581      0.165573     -0.418724
Pb       7.78313      3.90957     13.22127        -0.010128      0.522206     -0.491844
Pb       7.77662     15.58054     13.16183         0.213122     -0.539949     -0.026288
Pb       7.79858      7.97540      4.38056         0.605004     -0.483006      0.212476
Pb       7.71595      7.82590      0.08219        -0.334242     -0.003456     -0.414218
Pb       7.73575      7.77295      8.72217         0.481946     -0.045033      0.360956
Pb       7.59499      7.81410     13.18317         0.473515     -0.147014     -0.346811
Pb       7.88543     11.80182      4.36853        -0.179042      0.110431     -0.399652
Pb       7.75622     11.61402     17.59838         0.247813     -0.074343      0.053112
Pb       7.76456     11.69462      8.72374         0.177573      0.028130      0.490160
Pb       7.85621     11.60616     13.20854        -0.139404      0.267500     -0.560144
Pb      11.64921      3.92348      4.37690         0.079807      0.564937      0.236683
Pb      11.74254      3.85494     17.58600        -0.272098      0.114454      0.195629
Pb      11.70499      0.18223      4.43693         0.080273     -0.262142     -0.290913
Pb      11.63585     15.55825     17.54169         0.160883      0.360558      0.042757
Pb      11.66204      3.81615      8.74740        -0.069211      0.507506      0.088876
Pb      11.78740      0.02708      8.86127        -0.225206     -0.311227     -0.431824
Pb      11.56640      3.82602     13.17068         0.699454      0.218915     -0.151374
Pb      11.65487     15.46878     13.07255         0.209049      0.032254      0.485506
Pb      11.59946      7.83166      4.39619         0.213250     -0.729554      0.214745
Pb      11.46034      7.80790     17.60513         0.788310     -0.038283      0.538298
Pb      11.63478      7.78197      8.68944        -0.081386     -0.768909     -0.005111
Pb      11.56578      7.72298     13.15839         0.337345      0.420142     -0.044764
Pb      11.70528     11.82934      4.24764        -0.211019     -0.668322      0.921003
Pb      11.80701     11.64818     17.49447        -0.052697      0.084112      0.102901
Pb      11.74027     11.53169      8.70650         0.248781      0.608866      0.445678
Pb      11.65650     11.60287     13.07684         0.301799      0.320151      0.207210
Ti       1.95712      1.89526      2.31496        -0.062956      1.122042      0.062800
Ti       1.98333      1.92616     15.59956        -0.887768     -0.097864      0.516985
Ti       1.89895     13.67416      2.33263         0.714741     -0.041230     -0.237337
Ti       2.02579     13.57958     15.68752        -1.048172      0.705793      0.246676
Ti      13.66904      1.91359      2.38607         0.330275      0.647679     -0.227769
Ti      13.66083      1.99767     15.63425         0.188192     -0.296738      0.887651
Ti      13.55489     13.63560      2.37926         1.129877      0.076127     -0.246678
Ti      13.63728     13.72725     15.58181         0.592593     -0.544879      0.118863
Ti       1.88396      1.99595      6.80121         0.371966     -0.783955     -0.354044
Ti       1.91442     13.58058      6.89373         0.591674      0.891016      1.296253
Ti      13.62981      1.91766      6.76368         0.349845      0.050901     -0.177540
Ti      13.56820     13.61052      6.74319         0.299182      0.256551      0.847936
Ti       1.98570      1.89332     11.21956         0.142206      0.107944      0.516323
Ti       1.94865     13.61673     11.13963        -0.715282     -0.424193      2.308969
Ti      13.67885      1.90912     11.10025         0.004568      0.152237      0.836416
Ti      13.58765     13.67809     11.19363         0.084179     -1.905753      0.247538
Ti       2.01489      5.91080      2.47192        -0.794794     -1.677896     -0.676707
Ti       1.93441      5.80934     15.54352         0.074804     -0.366979      0.488872
Ti      13.67436      5.82118      2.41757         0.476697      0.137209     -0.275847
Ti      13.49381      5.93307     15.66904         1.448388     -0.654491     -0.984624
Ti       1.99414      5.83615      6.76843        -0.239949     -0.466789      0.315889
Ti      13.69425      5.75520      6.94437        -0.905174      0.671970     -0.277051
Ti       2.03430      5.72676     11.28012        -0.769287      1.022783      0.063850
Ti      13.68957      5.85141     11.21096        -0.363163      0.020277     -0.121572
Ti       1.95593      9.73342      2.38809         0.373815      0.482614      0.622882
Ti       1.93466      9.67441     15.59618        -0.256489      0.107068      1.099887
Ti      13.62158      9.72181      2.39939         0.422411     -0.035509      0.621910
Ti      13.65782      9.68605     15.62315        -0.657712      0.197897      0.110951
Ti       1.97237      9.68773      6.85971         0.048667     -0.544624     -1.516045
Ti      13.70281      9.60053      6.75127         0.271100      0.794627     -0.041376
Ti       1.94732      9.66672     11.18371         0.710377     -0.074063      2.061164
Ti      13.66820      9.65227     11.07524         0.187212      0.783849      1.917958
Ti       5.77257      1.97291      2.32576         0.230388     -0.630027      0.909512
Ti       5.86356      1.94704     15.50160        -1.122562      0.201788      0.968604
Ti       5.89419     13.65515      2.32494        -0.776110     -0.020847      1.467547
Ti       5.91312     13.59389     15.66939         0.166679      0.700185     -1.514249
Ti       5.86769      1.88331      6.73987        -0.416989     -0.173821      0.666978
Ti       5.85457     13.64759      6.83112        -0.251728      0.150064     -0.479139
Ti       5.89243      1.99895     11.29294        -0.878419     -0.081874     -0.279058
Ti       5.79183     13.74610     11.20340         1.065225     -0.811605     -0.248228
Ti       5.94769      5.86933      2.46486        -1.176395     -0.499072     -0.733279
Ti       5.93380      5.86819     15.66631        -0.718003      0.817945     -0.557219
Ti       5.86248      5.82701      6.79834         0.183878     -0.698866     -0.371735
Ti       5.83899      5.81918     11.13827         0.828991      0.396547      0.673278
Ti       5.86373      9.72130      2.46426         0.597051      0.841029     -0.903912
Ti       5.77096      9.75643     15.52258         0.370323     -1.451905      2.317788
Ti       5.95337      9.80481      6.72599        -1.140897     -0.200844      1.343137
Ti       5.85348      9.81766     11.17732        -0.301956     -1.178936      1.118769
Ti       9.78517      2.03416      2.33560        -0.260873     -0.178209      1.374265
Ti       9.74925      1.96905     15.62442         0.562012     -0.240400      1.346803
Ti       9.74268     13.72236      2.35218        -0.456564     -0.328135     -0.126305
Ti       9.80432     13.55415     15.61575        -0.550154      0.360848     -0.608269
Ti       9.67319      1.85967      6.88747         0.525544      0.863297      0.328560
Ti       9.75764     13.63157      6.88674         0.342232      0.059714      0.404729
Ti       9.75868      1.92110     11.24598        -0.226899     -0.085878     -1.539383
Ti       9.66822     13.63516     11.14045         1.014247     -0.534430      0.829905
Ti       9.76671      5.86384      2.40941         0.570162     -0.531548     -0.583348
Ti       9.77926      5.82575     15.57535        -1.115197     -0.274149      1.409846
Ti       9.66876      5.73991      6.88129         1.471198      0.631429     -1.599857
Ti       9.77319      5.79125     11.20778        -0.661852      0.813323     -0.294696
Ti       9.77656      9.78279      2.38198         0.031545     -0.512468      1.737111
Ti       9.69596      9.66319     15.58056         1.164699      0.396096     -0.421481
Ti       9.78949      9.72661      6.83242         0.179264     -0.484707      0.103767
Ti       9.79663      9.71387     11.15600        -0.812792     -0.477794      0.543349
O       1.91400      1.87024      0.54925         0.147722     -0.034002      0.232157
O       1.99917      1.85695     13.87855         0.053119     -0.198099     -1.727889
O       1.86323     13.69731      0.55559         0.239389     -0.203879     -0.106722
O       2.19482     13.59395     13.98959        -0.358612      0.091178     -1.800931
O      13.64665      1.90780      0.61616         0.163420      0.173830      0.321925
O      13.61593      2.04218     13.95004         0.033785     -0.224010     -2.324278
O      13.75272     13.51610      0.60665        -0.408928      0.423399      0.907356
O      13.60652     13.70594     13.86526         0.050194      0.198571     -1.209916
O       1.99428      1.88149      5.03100         0.003437      0.145816      0.492687
O       1.89044     13.68457      5.24349         0.655750     -0.273380     -2.706113
O      13.64480      1.85278      4.98440        -0.142214      0.202065      0.327044
O      13.55679     13.73386      5.02581        -0.189607     -0.410867     -0.524146
O       1.91443      1.88348      9.53456         0.247804      0.276930     -1.460611
O       1.80134     13.50395      9.46829         0.032446      0.162360     -2.098011
O      13.64223      1.94899      9.39017         0.146584     -0.109285     -0.626358
O      13.65085     13.61605      9.48088         0.255967     -0.099623     -1.643120
O       1.98163      5.88894      0.71776         0.244467      0.138913     -0.534723
O       2.01592      5.90221     13.79222        -0.187561     -0.116763     -0.066134
O      13.68241      5.80867      0.68298         0.013263     -0.395619     -0.622041
O      13.56069      5.86695     13.88570        -0.192346      0.311414      0.587179
O       2.05009      5.78963      5.03664        -0.023362      0.126344     -1.152492
O      13.68386      5.69780      5.25728         0.146517      0.354727     -2.076209
O       2.03170      5.70132      9.56737        -0.001672      0.269316     -1.186543
O      13.78994      5.77190      9.46239         0.146410      0.166155     -0.487601
O       2.14339      9.81729      0.66824        -0.322030     -0.169440     -0.079368
O       1.76129      9.66403     13.90424         0.314301      0.119234     -0.825353
O      13.67502      9.96127      0.70686        -0.223606     -0.049231     -0.772321
O      13.59912      9.52611     13.88114         0.083729      0.104002      0.275737
O       2.01791      9.61552      5.09663         0.090794      0.342083     -0.264342
O      13.74733      9.64686      5.01633         0.038533     -0.037912     -0.329827
O       2.18630      9.67869      9.50997        -0.355367      0.058576     -2.522830
O      13.60316      9.81407      9.37845         0.150638     -0.277747     -1.229556
O       5.67919      2.03182      0.60259         0.318677      0.183925     -0.436359
O       5.71272      2.00611     13.75689         0.728104     -0.118535     -0.291189
O       5.91551     13.58684      0.63900         0.108148      0.060691     -2.881382
O       5.93182     13.62983     13.89604        -0.112291      0.104831      0.518754
O       5.86339      1.67359      5.00036         0.143750      0.642417     -0.121099
O       5.81040     13.71012      5.08991        -0.105765     -0.374780     -0.254912
O       5.87326      2.09175      9.54640         0.193103     -0.263648     -0.577390
O       5.84896     13.75514      9.46551         0.286839     -0.346973     -0.329267
O       5.73662      5.74867      0.72463         0.302915      0.234886     -0.317904
O       5.95687      6.02999     13.90083         0.058800     -0.598255      0.004377
O       5.89027      5.80389      5.05421         0.032678      0.133800     -0.450804
O       5.82907      5.65261      9.38253        -0.165366      0.393889     -0.183496
O       6.02019      9.68620      0.69502        -0.205891      0.217931     -0.103875
O       5.98524      9.55616     13.85487        -0.265870      0.410163     -1.268238
O       6.00067      9.74422      4.99811        -0.047286      0.163601     -0.460438
O       5.89126      9.67575      9.46170        -0.134963      0.365593     -1.248675
O       9.74204      1.99646      0.64911         0.027514     -0.192962     -1.525249
O       9.61376      1.90477     13.92092         0.339511      0.445565     -1.562498
O       9.81899     13.70698      0.64184        -0.309710     -0.101637     -1.200527
O       9.64894     13.57390     13.84963         0.415027      0.222014      0.239646
O       9.72618      2.09307      5.17572         0.018425     -0.545911     -1.060502
O       9.86623     13.46817      5.18753        -0.159833      0.281696     -1.191822
O       9.74653      1.90680      9.45160        -0.074774     -0.067431      0.760606
O       9.87164     13.67533      9.43800        -0.658848      0.129370     -1.553233
O       9.90182      5.91527      0.67529        -0.144690      0.037635     -0.527757
O       9.70680      5.60441     13.86669         0.263597      0.172685     -1.233082
O       9.92616      5.89744      5.09017        -0.635852     -0.655450      0.374917
O       9.72133      5.76253      9.49422         0.320541      0.149876     -1.126968
O       9.62478      9.63594      0.69995         0.081965      0.086581     -1.781845
O       9.91970      9.65886     13.83816        -0.637420      0.478318     -0.403646
O       9.70555      9.64332      5.11038        -0.016777      0.154918     -0.692393
O       9.83378      9.68980      9.41702        -0.010091     -0.022638     -0.640079
O       3.87692      1.91001      2.81713         0.387600      0.057794     -0.114402
O       3.85853      2.14616     15.90369         1.277468     -0.713588      0.337674
O       3.92312     13.58663      2.54267        -0.385458     -0.040050      0.937036
O       3.93472     13.74674     15.98469         0.801014     -0.938826      0.927433
O       0.11319      1.91960      2.87065        -0.810931     -0.378757     -0.252949
O       0.00826      1.93857     15.90219        -0.485583     -0.064354      0.753021
O       0.05139     13.61124      2.91064        -0.682633      0.295876     -0.387835
O       0.00973     13.65190     15.96910        -0.358393      0.297832      0.101762
O       3.97628      1.68970      7.20414         0.106936      1.232568     -0.231313
O       3.85919     13.65645      7.33846         0.399115     -0.101248     -0.291658
O       0.00042      2.05269      7.07128        -0.208367     -0.278936      0.410984
O      15.57890     13.55314      7.06020        -0.340334     -0.029660      1.200931
O       3.90869      1.94866     11.69131        -0.052521     -0.038187     -0.033182
O       3.91997     13.62438     11.46080        -0.769032     -0.323417      0.623524
O       0.01274      1.78064     11.52574        -0.501461      0.339138      0.504250
O      15.52405     13.64127     11.64369         1.362437      0.246165      0.145624
O       3.97177      5.88464      2.87589        -0.146544      0.145852      0.472556
O       3.98739      5.82913     16.04423        -0.813940      0.077681      0.016066
O       0.07387      5.73174      2.80514        -0.155207      0.538240      0.518518
O      15.58678      5.89509     15.95860         0.100267      0.222694      0.330982
O       3.86659      5.67775      7.18275         1.633158      0.674093      0.310667
O       0.14585      5.90754      7.30071        -1.109405     -0.666775      0.254173
O       3.87837      5.87604     11.67986         1.357449     -0.671728     -0.293812
O       0.03610      5.93962     11.70242        -0.339966     -0.578561     -0.267223
O       4.03249      9.61410      2.82306        -1.198839      0.495845      0.409677
O       3.86096      9.71380     15.98290         0.678280      0.592894     -0.232231
O       0.03685      9.77509      2.85900         0.584916      0.191332     -0.394965
O      15.52925      9.61158     16.15270         0.811278      0.284214     -0.587823
O       3.96024      9.65031      7.10261         0.897077      0.163109      0.591855
O       0.08134      9.70354      7.11262        -0.360620     -0.049718      0.780969
O       3.87796      9.67461     11.65822         0.551287      0.901040      0.218535
O       0.02131      9.59684     11.56492        -0.558893      0.488233     -0.219976
O       7.81389      1.91665      2.84570         0.171683      0.489202     -0.383541
O       7.72357      1.99483     16.01282         0.590249      0.018716     -0.158357
O       7.80778     13.65520      2.77950         0.452524     -0.173211      0.373199
O       7.88937     13.77419     16.03447        -0.965389     -0.558109      0.229745
O       7.79081      1.77758      7.22915        -0.202523      0.741412      0.255532
O       7.81518     13.48512      7.16731         0.238027      0.454339      0.428980
O       7.80815      1.91294     11.56881         0.202566      0.130206      0.580647
O       7.82723     13.74759     11.52611        -1.017067     -0.113401      0.329283
O       7.84355      5.73932      2.53277        -0.110662     -0.222577      1.136926
O       7.85695      5.81839     16.12454         0.180631      0.432939     -0.052149
O       7.79503      5.84571      7.15525        -0.466222     -0.559926      0.430485
O       7.83507      5.69018     11.42955        -1.510963      0.694043      0.836677
O       7.87852      9.91015      2.88360         0.033971     -1.150875      0.243580
O       7.86695      9.64725     16.02039        -0.637444      0.350796      0.101768
O       7.82243      9.83928      7.27315        -0.186485     -0.579805     -0.313803
O       7.80587      9.67474     11.64863         0.246629      0.419377     -0.127120
O      11.74182      2.05302      2.82480        -0.223603     -0.827725     -0.124242
O      11.69559      1.90836     15.97875        -0.716329      0.719608      0.335072
O      11.66045     13.57714      2.70230         1.128610      0.378711      0.291705
O      11.74817     13.74482     15.98936        -0.922689     -0.849911      0.171464
O      11.74290      1.89842      7.22175        -0.095410      0.084981      0.064025
O      11.73142     13.78550      7.24968         0.251862     -0.754683      0.036562
O      11.67608      1.91457     11.54354         0.414132      0.374154      0.402843
O      11.66809     13.58774     11.48673        -0.154731      0.063075      0.943116
O      11.79500      5.79221      2.81380         0.145671      0.109913      0.472734
O      11.63919      5.85724     16.07375         0.571897     -0.363173     -0.078340
O      11.72428      5.76528      7.28635         0.189576      0.557511      0.587662
O      11.75079      5.82244     11.57204         0.051943     -0.576075      0.341020
O      11.76917      9.61750      2.80918        -0.886550      0.608376     -0.093089
O      11.63702      9.78663     16.11194         0.554683     -0.249394     -0.022441
O      11.77296      9.60861      7.01681        -0.796277      0.188099      0.775212
O      11.68633      9.82217     11.62923         0.157001     -0.622841     -0.538596
O       2.07015      3.84568      2.67166         0.022771     -0.064543      0.623795
O       1.89148      3.90076     15.83027         0.033541      0.663245      0.686505
O       1.99578     15.53057      2.80379        -0.143400      0.392231     -0.067463
O       1.91784     15.58883     16.00866         0.488330     -0.090087      0.374275
O      13.83619      3.82262      2.80058        -0.677271      0.005663      0.074142
O      13.64546      3.94381     15.98730        -0.240370      0.289434      0.687824
O      13.65245      0.01091      2.90084        -0.168402     -0.564276     -0.530544
O      13.50747      0.02356     16.00952         1.139138     -0.255658      0.149284
O       1.99358      3.87947      7.24625         0.008540     -0.587612      0.025200
O       1.87603      0.06161      7.31879        -0.023514     -0.917953     -0.041122
O      13.70961      3.92045      7.18134         0.027786     -1.767222      0.785384
O      13.72788      0.03641      7.15319         0.080915     -0.763005      0.320508
O       1.96407      3.86373     11.58247        -0.227296     -0.601665      0.599544
O       2.05043     15.53543     11.55488        -0.490602     -0.519684      0.376344
O      13.77883      3.85088     11.52073        -0.466941     -0.182589      0.051767
O      13.60201     15.51199     11.44332        -0.111591      1.990477      0.854537
O       1.99161      7.78487      2.82736        -0.037532      1.110953      0.157579
O       2.03705      7.73926     16.00631        -0.364577      0.358379      0.218724
O      13.76589      7.80475      2.65880         0.122349     -0.314919      0.504938
O      13.55266      7.80095     16.33011         0.022198     -0.263381     -1.011785
O       2.06680      7.69697      7.15310         0.115979      0.941127      0.639040
O      13.71881      7.75311      7.25015         0.085420      0.219847      0.353816
O       2.09700      7.79083     11.64998        -1.230402     -0.323214     -0.149504
O      13.64801      7.79640     11.38390        -0.320644     -0.360574      0.386821
O       2.01376     11.74762      2.78011         0.119072     -1.106886      0.448493
O       1.87569     11.65941     16.03446         0.726394     -0.203691      0.145027
O      13.65306     11.74155      2.94907         0.081040      0.109682     -0.472506
O      13.70536     11.66066     15.89822        -0.388433      0.071165      0.397953
O       2.11151     11.60922      7.24223        -0.835193      0.362127     -0.053318
O      13.69431     11.62055      7.29901        -0.457533      0.499705     -0.853876
O       1.86608     11.66043     11.70268         0.576486      0.520321     -0.350376
O      13.66648     11.67850     11.60778        -0.016113     -0.702961      0.077836
O       5.83734      3.85176      2.96414        -0.077717      0.012710     -0.496950
O       5.91977      3.99718     15.99521        -0.124794     -1.366913     -0.037306
O       5.76538      0.02268      2.69129         0.609626      0.114223      0.224429
O       5.83933      0.06966     15.98162        -0.037258     -0.089135     -0.001816
O       5.96472      3.82375      7.09664        -0.353581     -0.366241      0.177992
O       5.97675     15.51368      7.22683        -0.228009      0.286272      0.519953
O       5.79465      3.93573     11.61589         0.137006     -0.069193      0.528358
O       5.89773      0.03182     11.52630        -0.368092     -0.324274      0.574596
O       6.06290      7.76251      2.78053        -0.161239      0.337165      0.260093
O       5.90177      7.83171     16.13821        -0.097007     -0.011531      0.055949
O       5.96122      7.73246      7.12602        -0.535743      0.802608      0.166090
O       5.88974      7.80384     11.56267        -0.164128     -1.073017     -0.089549
O       5.91414     11.70645      2.65011        -0.342061     -0.331812      1.006539
O       5.98344     11.65258     15.88604        -0.325088      0.380537      0.531136
O       5.81515     11.72931      7.22870        -0.026894     -1.150838     -0.107888
O       5.84251     11.65447     11.69046         0.230676      0.882077     -0.152636
O       9.87701      3.93994      2.68100        -0.506670     -1.045646      0.653864
O       9.76449      3.90606     16.14346         0.013979     -0.484951     -0.385583
O       9.80271     15.53754      2.76009         0.172482      1.461029      0.449103
O       9.77585      0.03580     16.06213        -0.227078      0.149180     -0.024904
O       9.85362      3.90892      7.28087        -0.872738     -1.226572      0.150831
O       9.74816     15.59016      7.18721        -0.031055     -0.649881      0.261196
O       9.61958      3.91683     11.59566         1.131331     -1.884128      0.717355
O       9.82068     15.56223     11.64943        -0.616058      0.651960     -0.003032
O       9.82021      7.69562      2.83473        -0.514142      1.636344      0.346936
O       9.90288      7.74715     15.81622        -0.560165      0.071315      0.429745
O       9.70685      7.67629      7.20195         0.152421      1.562631      0.719550
O       9.78349      7.75474     11.55485         0.132603      0.322375      0.193054
O       9.86470     11.62224      2.72781        -0.216111      0.903601      0.327151
O       9.77765     11.67615     15.97474        -0.324711      0.357298      0.184344
O       9.83785     11.62471      7.25987         0.011346      0.015302      0.035649
O       9.59677     11.70757     11.51211         0.555800     -0.610427      0.410520
