  # total energy = -7880.20323937 
CRSYTAL
PRIMVEC
    15.6000000000000000    0.0000000000000000    0.0000000000000000
     0.0000000000000000   15.6000000000000000    0.0000000000000000
     0.0000000000000000    0.0000000000000000    17.640000000000000
PRESSURE
-3.26607 -3.53424 2.76471 -0.036019 -0.052287 -0.023858
PRIMCOORD
320 1
Pb       3.96157      3.89349      4.31975         0.055443     -0.173626     -0.274387
Pb       3.94316      3.85543     17.56788         0.055253      0.344481     -0.042372
Pb       3.80784     15.52128      4.37307         0.476166     -0.080806      0.422344
Pb       3.87392      0.04433     17.63477         0.121724     -0.583496     -0.756222
Pb      15.51664      3.85029      4.31310         0.215729     -0.271274     -0.400883
Pb       0.04364      3.82248     17.51790        -0.378030      0.423532     -0.086919
Pb       0.01671     15.59832      4.33276        -0.241743     -0.223258      0.095454
Pb      15.58039     15.57208      0.01916        -0.404170     -0.115687     -0.562881
Pb       3.85281      3.91626      8.72577         0.578708     -0.040449      0.221085
Pb       3.88478      0.01688      8.78566         0.020502     -0.177216     -0.493373
Pb       0.01514      3.88653      8.82094        -0.344471      0.243378      0.037330
Pb      15.53508      0.09616      8.73457         0.533020     -0.712862      0.171190
Pb       3.89616      3.93090     13.17113        -0.480052     -0.476789      0.084729
Pb       3.96742      0.07719     13.17127        -0.661805     -0.269081     -0.090283
Pb       0.03420      3.92983     13.19989        -0.362843      0.016642     -0.412868
Pb      15.51750     15.53900     13.21095         0.349728      0.375923     -0.123121
Pb       3.94522      7.75558      4.29709        -0.397479      0.217479     -0.020183
Pb       3.92536      7.74307     17.53739         0.425627     -0.163422      0.188735
Pb      15.57405      7.57962      4.32158         0.536446      0.991017     -0.105002
Pb       0.01017      7.74819     17.53269        -0.199173     -0.121801      0.102523
Pb       3.80440      7.73738      8.73751         0.385441      0.262035      0.223744
Pb       0.01324      7.84042      8.70822         0.060097     -0.058879     -0.150250
Pb       3.92110      7.78962     13.16113        -0.288713      0.424021      0.553818
Pb      15.59913      7.74186     13.14500         0.009729      0.098420      0.161336
Pb       3.90094     11.61499      4.30543        -0.183509      0.199374      0.246636
Pb       3.83410     11.65175     17.55130         0.318975      0.453938     -0.238410
Pb       0.06860     11.75868      4.37253        -0.036861     -0.364468      0.002903
Pb       0.03541     11.66734     17.57186        -0.526925     -0.478752     -0.009781
Pb       3.85252     11.77448      8.83183         0.261430     -0.012462     -0.482282
Pb       0.00414     11.61121      8.71382        -0.249703      0.276099     -0.098481
Pb       3.90176     11.62908     13.17764         0.254982     -0.020360     -0.360146
Pb       0.00184     11.74723     13.19304        -0.450252     -0.153879     -0.149227
Pb       7.74174      3.83112      4.27336        -0.173219     -0.138104      0.197742
Pb       7.83006      3.89208     17.62466        -0.188053      0.349922     -0.106830
Pb       7.73926     15.56270      4.38024         0.518498     -0.376909      0.202656
Pb       7.75594     15.58529     17.55340        -0.146971     -0.357735     -0.004434
Pb       7.76636      3.90712      8.78307         0.163848      0.025206     -0.321585
Pb       7.71960      0.07700      8.75081         0.226989     -0.629947      0.097060
Pb       7.67943      3.85070     13.23974         0.507282      0.204017     -0.069922
Pb       7.80278      0.05316     13.10067        -0.093542     -0.640754      0.009075
Pb       7.74712      7.67505      4.30913         0.092089      0.746720     -0.161447
Pb       7.78107      7.71820     17.49363        -0.360432      0.204789      0.214153
Pb       7.77154      7.81741      8.78850        -0.196446      0.071077     -0.525748
Pb       7.85400      7.68328     13.20971        -0.315483      0.572003      0.681517
Pb       7.71342     11.54698      4.27404         0.338204      0.266530      0.387876
Pb       7.79550     11.62586     17.43718         0.080675      0.030134      0.361017
Pb       7.76680     11.67634      8.62468        -0.220539      0.345221      0.033009
Pb       7.73558     11.68650     13.13900         0.001626      0.209609     -0.077933
Pb      11.75666      3.80676      4.23867        -0.711807     -0.011878      0.150473
Pb      11.57367      3.82630     17.57372         0.558363      0.234330     -0.367510
Pb      11.74159      0.00500      4.27784        -0.701291     -0.283927      0.135346
Pb      11.76128      0.01170     17.59364        -0.089382      0.054289      0.038403
Pb      11.70726      3.87550      8.73334        -0.332885      0.370007     -0.222508
Pb      11.57913      0.02881      8.75788         0.225985     -0.157271     -0.140297
Pb      11.67238      3.83904     13.14882         0.193044      0.205045      0.294930
Pb      11.65185      0.06909     13.20241         0.179659      0.173865     -0.565660
Pb      11.62226      7.80571      4.39561        -0.272793      0.192663     -0.644836
Pb      11.72495      7.80467     17.62431         0.005883     -0.165935     -0.407116
Pb      11.72856      7.80682      8.75759        -0.056783     -0.247063      0.063404
Pb      11.65912      7.83360     13.10800         0.101759     -0.043300      0.460517
Pb      11.67231     11.56475      4.43180        -0.106219      0.145404      0.075861
Pb      11.57871     11.74674      0.02602         0.068506     -0.253218     -0.195642
Pb      11.57407     11.78060      8.90756         0.515780     -0.226484     -0.608147
Pb      11.68918     11.69282     13.31382         0.152222     -0.076981     -0.440161
Ti       1.92551      1.88306      2.29483         0.165964      0.951002      2.618896
Ti       1.92470      1.94948     15.63455        -0.083097     -0.380338      0.054576
Ti       1.93967     13.64472      2.41001         0.665112     -0.980754      0.636258
Ti       1.79076     13.68728     15.61063         1.191808      0.359898      1.304555
Ti      13.62661      1.91100      2.38216        -0.354269     -1.160543      0.649216
Ti      13.58246      1.91081     15.56445         0.424805      0.501190      2.313586
Ti      13.60889     13.56263      2.41591        -0.222107      0.059305      0.807901
Ti      13.52373     13.54979     15.71188         0.668619      0.022780      2.405368
Ti       1.93467      1.99573      6.85241         1.098319     -1.325248     -0.120503
Ti       1.95553     13.61478      6.78710         0.056369      0.283467      0.105574
Ti      13.69211      1.95983      6.80628        -0.465761     -0.126429      1.770396
Ti      13.69390     13.64989      6.73738         0.350563     -0.750893      0.609725
Ti       1.88378      1.97590     11.26419         0.708639     -0.725268      1.416455
Ti       1.96995     13.65435     11.23267        -0.532164      0.914880      0.963751
Ti      13.67603      1.94706     11.14405        -0.269311      0.353682      1.903833
Ti      13.62016     13.59724     11.18507         0.211917      0.316767      1.534762
Ti       1.94693      5.76252      2.39502        -0.073048      0.934227      0.151010
Ti       1.94509      5.87421     15.62529         0.482731     -0.772251      1.397598
Ti      13.59574      5.91694      2.35811        -0.291644     -0.420958      0.046152
Ti      13.63032      5.76943     15.58778        -0.501504     -0.090843      1.378398
Ti       1.90910      5.78714      6.71108         0.573840      1.518660      1.081366
Ti      13.63041      5.89307      6.69950        -0.621434     -0.543242      1.211295
Ti       1.95379      5.90935     11.22284        -1.088341     -0.744555      1.156585
Ti      13.53732      5.89126     11.17239         1.002022     -1.419697      0.541949
Ti       1.89819      9.73274      2.32345         0.055331     -0.602033      1.595194
Ti       1.99706      9.74807     15.66115        -0.351512     -0.754532      0.322123
Ti      13.68600      9.71072      2.31789        -0.227377      0.270767     -0.447965
Ti      13.60610      9.62563     15.58847         0.397347      0.553467      0.839395
Ti       1.95002      9.73047      6.70594        -0.160003      0.024577      0.486415
Ti      13.54856      9.78102      6.78215         0.341803      0.772031      2.001953
Ti       1.92313      9.79192     11.20453         0.016959     -0.109800      2.003063
Ti      13.66202      9.70224     11.26850        -0.556065      0.605775      2.760357
Ti       5.75016      1.86966      2.39973         0.882082      1.161558      0.919632
Ti       5.91227      1.93982     15.64752        -0.693647     -0.196634      1.654266
Ti       5.86399     13.68394      2.43038         0.025567     -0.225611      2.119343
Ti       5.78177     13.66378     15.50503        -0.329386      0.358480     -0.032403
Ti       5.89285      1.92907      6.81601        -0.834324      0.532128      0.396340
Ti       5.84743     13.68029      6.70875         0.130635     -0.241708      0.258220
Ti       5.83436      1.95133     11.17521        -1.169739     -0.116120      0.166822
Ti       5.86951     13.64330     11.19122         0.117432     -0.135392      0.159512
Ti       5.85059      5.87365      2.40568        -0.222619     -0.623781     -0.499980
Ti       5.87184      5.76524     15.55246        -0.367857      1.002170      1.112406
Ti       5.84705      5.87240      6.89930         0.040756     -0.362206      0.045964
Ti       5.80284      5.83220     11.33599         0.050727     -0.170619      0.238069
Ti       5.81834      9.78589      2.27197         0.642557     -1.383924     -0.375440
Ti       5.86916      9.75405     15.65023         0.061019     -0.728357      0.275052
Ti       5.79443      9.79632      6.78789         0.561592     -0.451405      1.119542
Ti       5.85287      9.65923     11.20516        -0.557047      1.068523      0.673853
Ti       9.62024      1.86620      2.31807         1.138568     -0.687681      1.486069
Ti       9.69290      1.89617     15.64239         1.152978      0.760425      0.100727
Ti       9.80260     13.52561      2.51370        -0.600920      1.087536      0.830036
Ti       9.67239     13.68965     15.56617         0.169271     -0.675939      0.245749
Ti       9.75199      1.91732      6.84067        -0.339044      0.402594      1.702118
Ti       9.81161     13.58370      6.78154        -1.057481      0.570721     -0.702330
Ti       9.66552      2.03993     11.21446         0.627232      0.078677     -0.170674
Ti       9.82776     13.62115     11.30949        -1.288748      0.244765      1.302206
Ti       9.68296      5.75027      2.45585         0.046649      0.721103      0.711649
Ti       9.74625      5.83039     15.63219         0.213885      0.145634      1.832043
Ti       9.75229      5.83972      6.72723        -0.384244     -0.615124      1.825892
Ti       9.69376      5.92143     11.22355         0.671642     -1.796769      0.345754
Ti       9.81005      9.72335      2.37701        -0.790288     -0.337136      1.700399
Ti       9.80198      9.69294     15.55421        -0.632053     -0.031155      1.678982
Ti       9.77366      9.66942      6.81241        -0.607112      1.102952     -0.950494
Ti       9.66099      9.75226     11.18244         0.922978      0.287981      2.182914
O       1.87905      1.97738      0.62756        -0.014447     -0.313587     -2.195704
O       1.97647      1.85872     13.90984        -0.032487      0.228130     -0.105681
O       1.94478     13.61541      0.69840        -0.093258     -0.080480     -0.883303
O       1.64849     13.91781     13.92521         0.350140     -0.900193     -0.764322
O      13.63265      1.81191      0.69249        -0.019026      0.047562     -1.313753
O      13.51246      2.03384     13.90643         0.010783     -0.294652     -2.824370
O      13.51698     13.68325      0.69332         0.127070     -0.050179     -0.818667
O      13.48297     13.49593     14.06574         0.322812      0.227283     -3.222976
O       1.94922      2.01470      5.16142        -0.061904      0.321680     -1.732042
O       2.04651     13.37975      5.07378        -0.313975      0.630371     -0.901451
O      13.75448      1.92764      5.12265        -0.051977     -0.066931     -2.097623
O      13.79240     13.53368      4.98504        -0.357286      0.252352      0.349714
O       1.91229      1.94293      9.56257        -0.172002      0.137467     -2.396538
O       2.00058     13.64843      9.50627         0.037219     -0.178946     -1.006083
O      13.76115      1.91663      9.41062        -0.075198      0.110983     -0.498534
O      13.62294     13.58441      9.48682        -0.028211      0.035928     -1.013395
O       1.86024      5.83123      0.68619         0.269505     -0.218516     -0.717415
O       1.83091      5.87339     13.92904         0.378512      0.005432     -1.697966
O      13.67334      5.93096      0.64792        -0.248451     -0.041690     -0.633951
O      13.48617      5.77545     13.89964         0.557693     -0.014753     -1.440920
O       2.01523      5.96755      4.99557        -0.402516     -0.749340     -0.250187
O      13.56156      5.73263      4.99172         0.103075      0.128622     -0.922854
O       1.93926      5.79094      9.52494         0.066684      0.206249     -1.628747
O      13.61694      5.82454      9.43667        -0.167496      0.232907     -0.780196
O       1.97050      9.85142      0.61334         0.162876     -0.183312     -1.420544
O       2.11708      9.54948     13.97201        -0.282377      0.519208     -1.108220
O      13.55726      9.62834      0.58301         0.170402     -0.198888     -0.404632
O      13.60995      9.65247     13.87367        -0.164908      0.113540     -1.416669
O       1.76624      9.67910      4.99710         0.403531      0.010668     -0.521187
O      13.48308      9.92007      5.12247         0.270716     -0.435319     -2.122080
O       1.88530      9.95510      9.53967         0.195443     -0.381113     -2.241443
O      13.63580      9.70641      9.62511         0.178154      0.010473     -3.401568
O       5.83719      1.83002      0.71014         0.261054     -0.228241     -2.253315
O       5.87922      1.98228     13.97881        -0.131400      0.104993     -2.656512
O       5.85524     13.78568      0.75470         0.044144     -0.009181     -1.812261
O       5.85126     13.76383     13.74939        -0.150183     -0.482853      0.135652
O       5.77200      1.98660      5.09971         0.215661     -0.018040     -1.329100
O       5.82996     13.65740      4.95767        -0.110467      0.161408      0.009140
O       5.89403      2.09586      9.45645        -0.211764     -0.246641     -0.842040
O       5.72042     13.70729      9.46480        -0.123988     -0.171652     -0.617188
O       5.85056      5.85578      0.70492         0.128491      0.147247     -1.431810
O       5.87004      5.80765     13.82048        -0.167370     -0.347441     -1.454306
O       5.86483      5.85464      5.17835        -0.006158      0.178875     -1.399589
O       5.71068      5.71763      9.63359         0.249663      0.144926     -1.138134
O       5.84288      9.63511      0.50388        -0.119792      0.560993      0.211528
O       5.75851      9.84478     13.94401        -0.017844     -0.080094     -1.606552
O       5.95827      9.68550      5.10566        -0.293775     -0.132472     -1.578131
O       5.81113      9.71454      9.51039         0.219594     -0.123001     -1.482129
O       9.79085      1.93791      0.60811        -0.579046     -0.017651     -1.187796
O       9.75919      2.05032     13.93250        -0.150948     -0.475093     -1.369117
O       9.83175     13.44165      0.81272        -0.204641      0.025961     -1.987132
O       9.69491     13.60181     13.84312         0.305758      0.315913     -0.657544
O       9.80975      1.79132      5.19160        -0.204091      0.106876     -2.843058
O       9.82234     13.63828      5.04635        -0.004880      0.069106      0.097209
O       9.58236      2.05552      9.45852         0.454583     -0.054039      0.268156
O       9.83476     13.55188      9.61632         0.147703     -0.062465     -1.919794
O       9.56270      5.80255      0.76998         0.125150     -0.143990     -2.306251
O       9.71477      5.96572     13.97151         0.051442     -0.173053     -2.414947
O       9.71642      5.84359      5.02235        -0.105034      0.074545     -1.135585
O       9.78855      5.82421      9.52055        -0.252949      0.226130     -1.140627
O       9.74190      9.94199      0.70990         0.070444     -0.285301     -2.064959
O       9.75570      9.60995     13.87644         0.090037      0.177458     -2.371337
O      10.04921      9.67789      5.06095        -0.676042     -0.148934     -0.436387
O       9.67364      9.90764      9.50424        -0.246511     -0.087002     -1.960845
O       3.90558      2.02465      2.64796        -1.447311     -0.475388      0.695189
O       3.88975      1.83231     16.07413        -0.054226      0.519453      0.180582
O       3.89084     13.59868      2.93072         0.184497      0.115333     -0.441298
O       3.86632     13.74868     15.99024         0.200484     -0.147255     -0.059552
O       0.01006      1.81352      2.76658        -0.082424      0.381633      0.264880
O      15.55697      2.04123     15.95425         0.435423     -0.541798      0.368060
O       0.09216     13.61406      2.88870        -0.706166      0.179829     -0.299893
O      15.51893     13.55401     16.22500         0.250451      0.341761     -0.490769
O       3.95991      1.96972      7.18675        -1.014599      0.205473      0.745984
O       3.89802     13.67626      7.14839        -0.355755     -0.166113      0.674560
O       0.05494      1.95259      7.22352        -0.685519      0.253674      0.503987
O       0.02774     13.60435      7.14495        -0.472658      0.013623      0.286422
O       3.86638      1.88399     11.65003         0.636901      0.237785      0.047933
O       3.80551     13.66296     11.65929         0.661492     -0.206985      0.173641
O      15.57716      1.97308     11.69089        -0.607124     -0.139276     -0.232177
O      15.53286     13.63669     11.76958        -0.111196     -0.212720     -0.456315
O       3.90838      5.88752      2.75613        -0.359121     -0.434079      0.468251
O       4.00167      5.90232     16.10407        -1.249036     -1.079527     -0.282552
O      15.47894      5.86711      2.74787         0.559566     -0.906045      0.626855
O       0.08460      5.83299     16.02369        -1.519325     -0.444676      0.143228
O       3.85114      5.85127      7.20807        -0.595288     -0.269375      0.193575
O      15.51304      5.98891      7.04460         0.923880     -0.272270      0.244680
O       3.80690      5.87662     11.75993         0.793586     -0.141067     -0.135637
O       0.01366      5.70855     11.56603        -0.321672      0.645982      0.525450
O       3.89696      9.62713      2.78504         0.178603      0.175624     -0.181114
O       3.96443      9.74067     16.01161        -1.145146     -0.244013      0.752875
O       0.00752      9.71728      2.58777         0.005708     -0.325160      0.545004
O       0.02280      9.64103     15.91620         0.029336      0.395778      0.509614
O       3.94211      9.68323      7.06665        -1.172129      0.487249      0.404870
O      15.59276      9.63783      7.23042        -0.691463      0.541104      0.047561
O       3.88063      9.80557     11.59124        -0.095657     -0.200398      0.459876
O       0.01120      9.72884     11.58870        -0.619868      0.139354      0.628274
O       7.78255      1.77975      2.81389        -0.299627      0.600808     -0.033168
O       7.84281      2.02071     15.93216        -1.175136     -0.357671      0.947913
O       7.79774     13.63768      2.95303        -0.445603     -0.280994     -0.502249
O       7.80344     13.69618     15.90065        -0.777255     -0.418104      0.675932
O       7.76890      1.90425      7.23910         0.086336      0.388298      0.079646
O       7.72240     13.70624      7.15353         0.626067     -0.132464      0.329779
O       7.69837      1.98729     11.61091         0.903051      0.215927      0.428880
O       7.82562     13.69462     11.56895        -0.425101     -0.152189      0.413561
O       7.76395      5.71310      2.76265        -0.122872      0.459645      1.118984
O       7.73767      5.89783     15.96190         1.197483     -0.939835      0.528235
O       7.80044      5.97008      7.28672         0.428688      0.001713     -0.011398
O       7.78024      5.91010     11.74921        -0.454843     -0.783473     -0.582560
O       7.75561      9.74418      2.69584         0.246551      0.095458      0.429912
O       7.78421      9.74071     15.91726        -0.204347      0.085238      0.595612
O       7.81433      9.64760      7.09148        -0.291161      0.085975      0.973207
O       7.72666      9.74131     11.66816         0.585242     -0.375489     -0.021034
O      11.63076      1.81749      2.74802         0.512614      0.516720      0.329663
O      11.68238      1.96486     16.01614        -0.603974     -0.569327      0.566854
O      11.68721     13.58628      2.91776         1.201529     -0.130461     -0.128902
O      11.64570     13.59141     16.04970        -0.935327      0.366753      0.386977
O      11.69324      1.91167      7.20859         0.743262      0.081029      0.448088
O      11.69197     13.64207      7.20123         0.104782      0.255875      0.259353
O      11.62716      2.03221     11.63852         0.527985     -0.714606     -0.472069
O      11.69581     13.69508     11.68389         0.047690     -0.422836      0.308943
O      11.55618      5.73160      2.73190         1.737240     -0.011154      0.421833
O      11.69100      5.83490     16.07140        -0.710593      0.008275      0.308449
O      11.64352      5.78273      7.16488         0.658693      0.247482      0.210547
O      11.69118      5.74930     11.57237        -0.054615      0.740661      0.117901
O      11.73770      9.64355      2.69339        -0.024308      0.326600      0.648404
O      11.67811      9.56159     15.93228         0.000985      0.498725      0.400926
O      11.57215      9.95946      7.19856         1.804130     -0.537725      1.051901
O      11.62089      9.64455     11.43605         0.092578      0.159856      0.916168
O       1.88222      3.85642      2.76018         0.001059     -0.241172      0.459670
O       1.96182      3.86669     16.05004         0.398877     -0.007213      0.062429
O       2.00511     15.56690      2.80748        -0.063093      0.371232     -0.102097
O       1.85098     15.53009     16.14992        -0.185474      0.862346      0.203839
O      13.59671      3.74286      2.75129         0.357251      1.360963      0.390074
O      13.52404      3.84352     16.03662         0.626674      0.682388      0.391187
O      13.64557     15.48603      2.82289         0.332330      0.566114      0.329997
O      13.62669      0.01861     16.03024         0.057600     -0.775113      0.280169
O       1.90709      3.96953      7.24224        -0.274634     -0.184194     -0.130622
O       1.90720      0.00334      7.01525         0.254435     -0.099974      0.872557
O      13.70054      3.85914      7.13553        -0.081463      0.593487      0.417030
O      13.75163     15.55041      7.26989        -0.630130      0.313865     -0.412638
O       2.03787      3.85747     11.62389        -0.372157      0.606544      0.500462
O       1.87945      0.01915     11.70905        -0.091214     -0.471075     -0.185323
O      13.68801      3.85229     11.62373        -0.356374     -0.112512     -0.273294
O      13.59046     15.53671     11.68344        -0.047475      0.957635     -0.330902
O       1.90007      7.67689      2.85144        -0.087473      0.868864     -0.125125
O       1.93184      7.68551     16.12164         0.596093      1.528713      0.040246
O      13.63210      7.76947      2.81169        -0.285647     -0.120111      0.230122
O      13.59241      7.69769     15.94985         0.435063      0.325965      0.584652
O       1.99726      7.88037      7.29418        -0.573529     -1.264627     -0.171668
O      13.52700      7.84912      7.09675        -0.325084     -0.470260      0.293539
O       1.81625      7.81682     11.65963         0.814820     -0.091158     -0.413651
O      13.59713      7.74488     11.67230         0.416199      0.089260     -0.216855
O       1.98432     11.62933      2.84188        -0.012027      0.015601     -0.270847
O       2.01504     11.70544     15.98007        -0.395513     -0.131918     -0.008925
O      13.74420     11.63283      2.58880        -0.324122      0.388107      0.652500
O      13.55121     11.60288     16.02717         0.274307     -0.089890      0.353708
O       1.84811     11.63890      7.15615         0.651442      0.056571      0.538817
O      13.59265     11.71072      7.28636         0.444811      0.010414     -0.043770
O       1.86308     11.70736     11.67454         0.271829      0.154874      0.468374
O      13.55190     11.69123     11.75339         0.220040     -0.285178     -0.155401
O       5.80430      3.89222      2.59350         0.300666     -0.623477      1.494901
O       5.88375      3.89319     16.11126        -0.252721     -0.642340      0.018089
O       5.80568      0.02404      2.90351        -0.302767     -0.866604      0.020858
O       5.87975      0.02412     15.95339         0.289573     -0.374578      0.673700
O       5.90209      3.93517      7.16326        -0.128510     -0.179214      0.723351
O       5.84394     15.59225      7.23622        -0.336027      0.296978      0.030996
O       5.76224      3.86246     11.72077         0.240927      0.330591      0.131727
O       5.83710     15.59664     11.49771         0.013299      0.572004      0.525519
O       5.96538      7.76532      2.76067        -0.498562      0.522650      0.461025
O       5.85104      7.65172     15.91317         0.048142      1.757765      0.524254
O       5.72649      7.73028      7.40595         0.707814      0.664492     -0.074146
O       5.76668      7.76055     11.62058         0.225571      0.151923      0.171662
O       5.83809     11.61647      2.79036        -0.245439      0.749888     -0.316354
O       5.73392     11.74944     15.96098         0.548051      0.225416      0.194646
O       5.82076     11.73403      7.10356         0.077604     -0.441907      0.474224
O       5.88185     11.71311     11.41584        -0.359530     -0.056644      1.144561
O       9.61472      3.79059      2.82955         0.475730     -0.381211      0.047757
O       9.71882      3.85177     16.03736        -0.026644      0.916887      0.515651
O       9.78206     15.49958      2.74979        -0.243982      0.735506      0.326785
O       9.61481     15.59571     16.02025         0.773138     -0.481319      0.048402
O       9.68524      3.90843      7.18883         0.056195      0.393995      0.091929
O       9.67076      0.04934      7.34341         0.497805     -1.220610      0.193330
O       9.78405      3.96877     11.67999        -1.116939     -0.771340     -0.017686
O       9.70813      0.06507     11.63602         0.251965      0.103477      0.171454
O       9.73571      7.78988      2.80574        -0.100413     -0.344476      0.265961
O       9.65205      7.81133     16.02078         0.299006     -0.675345      0.542809
O       9.87692      7.86913      7.27501        -0.290284     -1.453955      0.047814
O       9.71529      7.74351     11.60314        -0.158754      1.258272      0.111476
O       9.83054     11.64125      2.90412        -0.380625     -0.645135      0.316436
O       9.63634     11.62837     16.01247         0.840766      0.767435     -0.113286
O       9.60857     11.72093      7.11378         0.295281      0.129138      0.603513
O       9.71483     11.66611     11.78581         0.233538     -0.110369     -0.360058
