  # total energy = -7877.81922812 
CRSYTAL
PRIMVEC
    15.6000000000000000    0.0000000000000000    0.0000000000000000
     0.0000000000000000   15.6000000000000000    0.0000000000000000
     0.0000000000000000    0.0000000000000000    17.640000000000000
PRESSURE
-6.44779 -6.4237 -10.0137 0.005011 0.270265 -0.048194
PRIMCOORD
320 1
Pb       3.83519      3.81970      4.42325         0.049649     -0.003061     -0.353178
Pb       3.98394      3.99123     17.60530        -0.121332      0.075924     -0.565088
Pb       3.76027     15.45584      4.35284         0.841235     -0.038208      0.288410
Pb       3.77899     15.57001      0.04783         0.440023      0.075646     -0.611958
Pb      15.55513      3.85006      4.37670         0.438266      0.381240     -0.398300
Pb       0.03456      3.99393     17.63272        -0.385691     -0.083314     -0.678819
Pb      15.57248     15.53802      4.35440        -0.252069     -0.244953     -0.166805
Pb      15.40902     15.58868     17.62362        -0.055345      0.050979     -0.402204
Pb       3.82649      4.01690      8.82948        -0.111540     -0.287009     -0.703286
Pb       3.88424     15.58917      8.75591         0.006486      0.112619      0.246655
Pb      15.55098      3.99034      8.85170        -0.064215     -0.302877     -0.521822
Pb      15.53735     15.59079      8.65249        -0.221052      0.018480      0.918819
Pb       3.95361      3.70502     13.28005        -0.092258      0.006442      0.109018
Pb       3.85908     15.55658     13.15988         0.299749     -0.341814     -0.557771
Pb       0.02010      3.90299     13.17783        -0.078855     -0.172787     -0.111710
Pb      15.51498     15.59473     13.20320         0.249417      0.201886     -0.335607
Pb       3.94454      7.76298      4.45715        -0.325832      0.316943     -0.729899
Pb       4.00156      7.74923     17.61199        -0.210204     -0.009852     -0.400927
Pb       0.05512      7.82109      4.34011         0.104599     -0.368377     -0.102156
Pb       0.08640      7.76377     17.50451         0.017554     -0.060280     -0.084363
Pb       3.89120      7.83368      8.81351        -0.085733     -0.019664     -0.052612
Pb      15.49297      7.78535      8.86814         0.132662      0.643279     -0.305258
Pb       3.92314      7.73394     13.18721        -0.278846      0.112954     -0.236190
Pb       0.10383      7.79022     13.18413        -0.018050     -0.233806     -0.321314
Pb       3.91133     11.65446      4.35940        -0.203574     -0.386760     -0.263350
Pb       3.85781     11.71875     17.60616         0.270681     -0.560836     -0.334396
Pb      15.57866     11.69375      4.30191         0.166015      0.048169      0.044350
Pb      15.59046     11.70908     17.45602        -0.294672     -0.136902      0.241728
Pb       3.82285     11.73885      8.86735         0.068600      0.044615      0.106727
Pb      15.52794     11.82147      8.77533         0.042182     -0.576245     -0.008913
Pb       3.84814     11.80635     13.17000        -0.299960     -0.024554     -0.356635
Pb      15.44563     11.77169     13.18709         0.319809      0.065201     -0.386377
Pb       7.77111      3.66004      4.48000         0.240437     -0.361104     -0.273440
Pb       7.75905      3.92503      0.00537        -0.017009     -0.509458     -0.382067
Pb       7.62025     15.47443      4.43533        -0.135870      0.052430     -0.376184
Pb       7.68397      0.02514     17.57839         0.370898      0.156840     -0.094398
Pb       7.57434      3.95053      8.83113         0.381629     -0.241486     -0.074140
Pb       7.75857      0.01763      8.82025         0.012856      0.175192     -0.387163
Pb       7.92981      3.94913     13.25188        -0.177172      0.033201     -0.446970
Pb       7.81746      0.11093     13.16196        -0.207224     -0.502569     -0.221261
Pb       7.88783      7.67702      4.40777         0.174443      0.440007     -0.335360
Pb       7.77839      7.82390      0.01999         0.198234     -0.199493     -0.465689
Pb       7.70396      7.83342      8.79468         0.096458      0.018570     -0.287334
Pb       7.76002      7.85938     13.16903         0.147187     -0.183977     -0.227207
Pb       7.80056     11.61294      4.40076         0.033521     -0.034733     -0.494528
Pb       7.76884     11.67282     17.55495         0.305865     -0.067133     -0.385611
Pb       7.81148     11.76119      8.77691         0.076633     -0.265661      0.363885
Pb       7.74602     11.82106     13.14590         0.380941     -0.088989     -0.415186
Pb      11.75585      3.81954      4.37680        -0.366093     -0.092078     -0.587524
Pb      11.70506      3.81535      0.03942         0.535278     -0.209269     -0.041260
Pb      11.59106     15.42951      4.41785         0.063834      0.099051     -0.613121
Pb      11.53658     15.49132      0.02892         0.250776      0.056316     -0.506620
Pb      11.60351      3.92876      8.78107         0.384211      0.012174     -0.060106
Pb      11.78817      0.01797      8.75155        -0.193215      0.396117     -0.324382
Pb      11.79277      3.92501     13.16113        -0.026537      0.227430     -0.054997
Pb      11.66499     15.59033     13.14133        -0.199753     -0.215116      0.313807
Pb      11.70102      7.71175      4.33205        -0.226175     -0.097569     -0.299249
Pb      11.63651      7.70454     17.55446         0.246359      0.178640      0.182431
Pb      11.60865      7.80532      8.75328         0.126899     -0.022346     -0.077759
Pb      11.69211      7.73656     13.16104         0.426535      0.084238     -0.079486
Pb      11.69439     11.51389      4.26320        -0.455449      0.489610      0.425475
Pb      11.70049     11.61144     17.50603         0.117359      0.591638      0.072326
Pb      11.71596     11.71657      8.79101        -0.353779     -0.214266     -0.150760
Pb      11.61035     11.68589     13.16501        -0.187356     -0.059830     -0.212955
Ti       1.98990      1.83178      2.38474        -0.104352      1.436517     -0.361715
Ti       1.94683      1.89068     15.62672        -0.017956      0.970514     -1.484562
Ti       1.89028     13.63318      2.23428         0.254542     -1.153606      0.026699
Ti       2.07480     13.61233     15.58792        -0.880920     -0.420791     -1.645877
Ti      13.69752      1.85839      2.38749        -1.164779      0.466886     -1.478350
Ti      13.63476      1.95060     15.69259         0.363767      0.545780     -1.107626
Ti      13.55546     13.58435      2.33171        -0.032181     -0.149089     -1.054871
Ti      13.69639     13.65711     15.51567        -0.597849      0.051184     -0.996664
Ti       1.80971      1.87453      6.76754         0.730335      1.352059     -0.612542
Ti       1.90942     13.67677      6.82533         0.036176     -0.184947     -0.639213
Ti      13.61267      1.96428      6.65723        -0.475802     -0.248894      0.158882
Ti      13.57513     13.64926      6.66784         0.133686     -0.105148     -0.897611
Ti       1.99477      1.93416     11.15291        -0.910887     -0.908476     -0.584770
Ti       1.89108     13.65450     11.08560         0.959040     -0.161814     -0.826792
Ti      13.61615      1.95385     11.20841         1.209859      0.332163     -2.328759
Ti      13.57428     13.72429     11.10116         0.279051     -0.903999     -0.132477
Ti       2.06782      5.77853      2.29743        -0.571111      0.534628     -1.067844
Ti       2.02602      5.78215     15.49938        -0.125927      0.070993     -0.355136
Ti      13.70552      5.78178      2.25584        -0.147728     -0.127890     -1.171760
Ti      13.64673      5.90235     15.55716         0.727602     -0.989350      0.016229
Ti       1.88438      5.90729      6.76570         0.072743     -0.787936     -0.882476
Ti      13.64949      5.82382      6.73013        -0.194214      0.330456     -0.115483
Ti       2.06520      5.73676     11.15067        -0.880990      0.978235     -0.555215
Ti      13.69435      5.88375     11.14588        -0.027491     -0.116045     -0.304475
Ti       1.93966      9.71347      2.33684         0.544554      0.199218      0.193679
Ti       1.97347      9.70737     15.48121         0.351597      0.069817     -0.900692
Ti      13.65280      9.69682      2.47042         0.333015      0.125220     -2.139782
Ti      13.66775      9.74776     15.62860        -0.553317      0.118381     -1.063201
Ti       1.99001      9.78323      6.87352        -0.087064      0.029997     -1.251180
Ti      13.59451      9.72940      6.77138         0.735413      0.034950     -1.122011
Ti       1.97911      9.70509     11.20719        -0.425569      0.174021     -0.327414
Ti      13.65003      9.74141     11.24023         0.182442     -0.441017     -1.418963
Ti       5.79302      1.86050      2.35494         0.666240     -0.425529     -0.455564
Ti       5.79450      1.88397     15.64735         0.515297      0.479281     -1.580338
Ti       5.79120     13.49971      2.28357         0.356828      0.624953     -0.842140
Ti       5.92862     13.59074     15.62742        -0.419394      0.333627     -1.325576
Ti       5.74664      1.92337      6.81578         0.526948     -0.469115     -1.467495
Ti       5.79043     13.63508      6.80839         0.239028      0.304360     -1.309812
Ti       5.86733      1.99378     11.18484         0.242242     -0.644397     -1.416483
Ti       5.84570     13.60510     11.11007        -0.881029      1.087255     -0.487731
Ti       5.95831      5.77173      2.33346        -1.439178      0.087752     -1.138517
Ti       5.97234      5.80543     15.53876        -0.920023     -0.338030     -0.317602
Ti       5.81166      5.82987      6.65192         0.040391     -0.033689      0.225601
Ti       5.87909      5.89830     11.16896         0.388129     -0.955723     -1.033191
Ti       5.82884      9.62685      2.36852        -0.560111      0.405872     -0.882189
Ti       5.86085      9.65546     15.53551        -0.272911      0.641649     -0.379965
Ti       5.83574      9.79001      6.86264        -0.330887      0.011443     -1.267666
Ti       5.85359      9.73779     11.21408        -0.106129      0.207846     -1.423100
Ti       9.66183      1.85035      2.42858         0.934470      0.716453     -1.251267
Ti       9.77727      1.95785     15.65738        -0.004148     -1.292777     -0.663352
Ti       9.66713     13.60293      2.28662         0.138666     -0.431530     -0.079131
Ti       9.76886     13.67696     15.54566         0.556357     -0.156611     -1.090153
Ti       9.72000      1.95320      6.79076        -0.577681      0.492543     -1.087993
Ti       9.71239     13.67698      6.76261         0.186506     -0.212438     -0.871131
Ti       9.78157      1.95218     11.10854        -0.399143     -0.020728     -1.750607
Ti       9.72687     13.66056     11.05100        -0.603229     -0.906638     -0.363370
Ti       9.75574      5.79459      2.30209         0.738906     -0.100734     -0.729974
Ti       9.83067      5.72763     15.62204        -0.206766      0.255791     -1.830878
Ti       9.66943      5.82490      6.79654         0.399131     -0.033367     -0.082603
Ti       9.73441      5.80954     11.13093        -0.026909     -0.422742     -1.263237
Ti       9.72320      9.68029      2.28771        -0.394764     -0.143699     -0.307646
Ti       9.73766      9.63862     15.57062         0.640147      0.830262     -0.759276
Ti       9.70507      9.76404      6.81173         0.275424      0.008784     -1.475513
Ti       9.78571      9.58638     11.21298        -0.140601      2.197532     -1.783579
O       2.03362      1.93208      0.61629        -0.019523     -0.247001      0.555271
O       2.00261      2.09983     13.73523         0.008246     -0.642328      2.012442
O       1.95756     13.62154      0.42752        -0.033585      0.182640      0.761313
O       2.15785     13.50030     13.75775        -0.105031      0.443240      1.548745
O      13.68787      2.04447      0.48242        -0.082380     -0.563896      2.172319
O      13.78234      1.96642     13.82574        -0.285770     -0.182216      1.134630
O      13.47063     13.41809      0.49280         0.780624      0.764387      1.538149
O      13.64459     13.68797     13.66950         0.225500     -0.276281      0.783288
O       1.83515      1.86014      4.95448         0.069928     -0.196370      0.796702
O       1.93682     13.74845      5.00570        -0.208082     -0.197183      1.062568
O      13.63071      1.77816      4.83445         0.196836      0.533875      1.447127
O      13.58541     13.67664      4.80843         0.162373      0.279991      1.881631
O       2.00602      1.92400      9.37081        -0.034922     -0.034232      0.475088
O       1.90440     13.63393      9.23708         0.145792      0.161917      1.012761
O      13.53414      1.92328      9.34443         0.239137     -0.167854      1.882443
O      13.61678     13.67401      9.29173        -0.160929      0.167180      1.541208
O       2.08340      5.85840      0.39311        -0.121438     -0.354750      2.107519
O       1.88497      5.72297     13.70777         0.463295     -0.008120      0.504251
O      13.56613      5.66436      0.37436         0.310505      0.320358      2.339085
O      13.68032      5.80828     13.75438        -0.241751     -0.006591      0.587731
O       1.74449      5.88886      4.94112         0.518046      0.191261      1.240599
O      13.77411      5.87325      4.94025        -0.171640     -0.091023      1.105438
O       2.07832      5.81061      9.30778        -0.166020     -0.301484      1.108824
O      13.70257      5.81569      9.34724         0.265836      0.262705      0.806806
O       1.92809      9.68833      0.58821        -0.036287     -0.064310      0.001455
O       1.90264      9.78312     13.65328        -0.006212     -0.147782      1.385775
O      13.74016      9.86929      0.65138        -0.397366     -0.234433      1.715740
O      13.62043      9.79683     13.82137         0.266777      0.024673      0.997152
O       2.22725      9.82950      4.99092        -0.828209     -0.188849      2.348722
O      13.62785      9.86419      4.87202        -0.111383     -0.575100      1.999537
O       1.88776      9.59381      9.40412         0.438749      0.134105      1.255135
O      13.70162      9.63386      9.41460        -0.622976      0.273030      1.011595
O       5.93891      1.93434      0.53400        -0.478992      0.027984      1.129170
O       5.79770      1.93905     13.73246        -0.098973     -0.044323      1.743255
O       5.87053     13.32434      0.43928        -0.063854      0.681533      1.244362
O       5.87942     13.72261     13.79310        -0.029298     -0.507138      1.436111
O       5.90165      1.80393      4.92153        -0.219154      0.613433      1.685275
O       5.94491     13.73645      4.91460        -0.434222     -0.423001      2.211275
O       5.96082      1.94852      9.26957        -0.321062      0.031260      2.138696
O       5.68423     13.75620      9.32424         0.616254     -0.493929      0.250027
O       5.76590      5.83190      0.40954         0.423223     -0.198448      2.136480
O       5.94916      5.75229     13.73001         0.165463      0.268936      0.814709
O       5.81101      5.81798      4.85017         0.090567      0.039209      0.994380
O       5.93432      5.76266      9.30357        -0.189093      0.501845      1.515117
O       5.67141      9.52518      0.51387         0.926604      0.469129      1.666140
O       5.96990      9.74014     13.76233        -0.160531     -0.489258      0.252623
O       5.74281      9.91741      5.03214         0.051899     -0.475174      1.034113
O       5.81376      9.65643      9.39041         0.097886      0.074820      1.277109
O       9.75141      1.94544      0.56283        -0.248196     -0.354868      1.638654
O       9.84834      1.87593     13.84849        -0.050956      0.228697      0.713906
O       9.72189     13.65695      0.50733        -0.151501     -0.014736      0.518396
O       9.72250     13.77686     13.71725         0.100685     -0.282286      1.350990
O       9.68469      2.11356      4.88738         0.094777     -0.338098      1.453952
O       9.73716     13.55865      4.88684        -0.163963      0.276333      2.067361
O       9.77947      1.88183      9.24491         0.087527      0.058842      2.218837
O       9.61472     13.69338      9.23306         0.564477     -0.079575      1.266614
O       9.79046      5.98122      0.48972        -0.070288     -0.683806      0.799629
O       9.82807      5.56213     13.72769        -0.133668      0.528680      1.776364
O       9.69996      5.92351      5.01816         0.065809     -0.335823      0.549027
O       9.65662      5.81981      9.29890         0.083844      0.345485      1.405247
O       9.61562      9.54506      0.44599         0.228292      0.124105      1.469145
O       9.94733      9.77152     13.75144        -0.767385     -0.496290      1.552218
O       9.75714      9.80259      4.90475        -0.255238     -0.127794      2.522454
O       9.83603      9.69311      9.33352        -0.134656     -0.260566      1.895481
O       3.92485      1.85080      2.90338        -0.236484      0.574738     -0.524283
O       3.90641      1.99976     16.05774        -0.638083     -0.537310     -0.170454
O       3.87207     13.63763      2.64021        -0.018959     -0.166466     -0.073024
O       3.96127     13.57188     16.03110        -0.511673     -0.216312      0.002674
O      15.57722      1.90672      2.73063         0.766177     -0.041725     -0.035088
O      15.59725      1.78808     16.22328         0.918344      0.742184     -0.921784
O      15.57971     13.70734      2.75359         0.799130     -0.208518     -0.483492
O       0.03683     13.58436     15.70265         0.119628      0.183263      0.743328
O       3.84538      1.75892      7.12428         0.160016      0.796644     -0.328085
O       3.85538     13.73740      7.07426         0.280718     -0.221595      0.171313
O      15.47867      1.87584      7.19171         0.411221      0.156673     -0.411252
O      15.53611     13.59243      7.17370         0.106693      0.134939     -0.517029
O       3.94049      1.94427     11.62320         0.672964      0.133619     -0.352047
O       3.93729     13.54064     11.49586         0.170422      0.447036      0.369200
O       0.09209      1.89426     11.55217        -0.407824      0.104245      0.108004
O       0.08791     13.70477     11.49389        -1.804285     -0.519608      0.275878
O       3.90647      5.86126      2.71307         0.083760      0.034864      0.115191
O       3.93838      5.76147     15.81849        -0.236470      0.206713      0.068030
O       0.05454      5.72778      2.47830        -0.333305      0.189064      0.332928
O      15.55746      5.85581     15.93166         0.363037     -0.053742      0.189467
O       3.92838      5.73451      7.05244        -0.254868      0.316636      0.000205
O       0.03328      5.84791      7.24981        -0.778543      0.191468     -0.093611
O       3.95292      5.97993     11.43551         0.453321     -0.770889      0.294013
O       0.06442      5.90110     11.50707        -0.217952     -0.527822     -0.177156
O       3.89202      9.83450      2.74791         0.613851     -0.457595      0.050808
O       3.89818      9.67325     15.88072        -0.217302      0.188723     -0.108992
O       0.01671      9.73283      2.89191        -0.159723      0.213066     -0.304864
O      15.54510      9.72985     16.13443         0.388561     -0.021776     -0.898237
O       3.84001      9.75258      7.36808         0.153841     -0.234585     -0.263650
O      15.54751      9.73802      7.24701         0.207143      0.184837     -0.624841
O       3.90324      9.60702     11.62595         0.334567      0.314759     -0.353943
O      15.54873      9.57830     11.54919         0.796285      0.634364      0.220762
O       7.74769      1.84515      2.83900         0.180726      0.318478     -0.290113
O       7.75577      1.86426     15.94288         0.097412      0.068474      0.171118
O       7.77544     13.53789      2.77743         0.393185      0.201122     -0.502049
O       7.81542     13.78204     15.90901        -0.313129     -0.645226      0.279856
O       7.81915      1.94127      7.04684         0.017424      0.096396      0.233605
O       7.76223     13.55976      7.27915        -0.343342      0.570036     -0.917588
O       7.90512      1.97080     11.60789        -0.224347     -0.541589     -0.285951
O       7.74184     13.66835     11.52036         0.606357     -0.150187     -0.087687
O       7.76660      6.04576      2.56641         0.130308     -0.717804      0.141551
O       7.86054      5.72383     16.01681        -0.346389      0.276184     -0.334159
O       7.74484      5.80691      7.02387         0.118808     -0.065204      0.224052
O       7.82772      5.91697     11.61617         0.321031     -0.071100     -0.124739
O       7.82586      9.65060      2.84439        -0.443118      0.181176     -0.604400
O       7.83255      9.68032     15.91586        -0.073873     -0.593849      0.147693
O       7.73318      9.82895      7.22734         0.346861      0.019056     -0.207413
O       7.85833      9.67043     11.57225        -0.321113      0.004852      0.104455
O      11.69644      1.99378      2.84333        -0.295097     -0.274282     -0.420161
O      11.75473      1.91713     16.10652        -0.627467     -0.047115     -0.292919
O      11.69373     13.58186      2.61671        -0.648395      0.310791      0.491922
O      11.75976     13.63250     15.82594        -1.246702      0.138782      0.345928
O      11.71923      1.99067      7.09121         0.266460     -0.452788     -0.133783
O      11.70818     13.70370      7.01282        -0.995326     -0.224676      0.322522
O      11.77049      2.01045     11.57299        -1.348018     -0.532893      0.108951
O      11.67026     13.62068     11.41620         0.675842      0.290248     -0.086475
O      11.70941      5.68699      2.73415        -0.093170      0.721399     -0.102033
O      11.72277      5.78552     15.88560        -0.449963     -0.190495      0.255453
O      11.70438      5.84772      7.26277         0.018663      0.315967     -0.702964
O      11.72592      5.80250     11.41613        -0.323809     -0.060468      0.464038
O      11.64016      9.62579      2.80035         0.809800      0.141156     -0.445964
O      11.67660      9.74967     16.07151        -0.058747     -0.301947     -0.287687
O      11.65169      9.61661      7.17042         0.128996      1.052503     -0.170479
O      11.70420      9.72674     11.71674        -0.092206     -0.041094     -0.567781
O       2.05553      3.89189      2.90208        -0.335392     -0.228533     -0.687405
O       1.97705      3.89221     15.87253        -0.539262     -0.599635      0.550401
O       2.09370     15.57806      2.71017        -1.013374     -0.389337     -0.311848
O       2.01277     15.58155     15.90028         0.240681     -0.135190      0.174250
O      13.63042      3.90301      2.85811         0.518971     -0.344580     -0.383631
O      13.67749      3.86244     15.95962         0.083558     -0.074002     -0.080617
O      13.65168     15.55222      2.63979        -0.151315      0.477470     -0.158204
O      13.66194     15.53812     15.93290         0.220173      0.113714      0.527492
O       1.83341      3.82377      7.03193         0.399243      0.075594      0.502224
O       1.84128     15.58685      7.22661        -0.048966     -0.376780     -0.365151
O      13.68000      3.92690      7.09791         0.069982     -0.394081     -0.326495
O      13.60715     15.55925      7.22116         0.070589      0.302896     -0.830465
O       2.06686      3.82701     11.39437        -0.074577      1.116895      0.412245
O       2.00206     15.48456     11.57657         0.524540      1.176406      0.090858
O      13.70852      3.84964     11.49583         0.206920      0.598229      0.342496
O      13.69564      0.00060     11.64748        -0.394618     -0.325209     -0.537558
O       1.96549      7.83160      2.80623        -0.007872     -0.813977     -0.112064
O       1.88761      7.79441     15.77343        -0.005276     -0.091537      0.298622
O      13.67857      7.72669      2.67392        -0.007685      0.016474      0.194089
O      13.58231      7.82301     16.04185         0.175890     -0.249894     -0.378757
O       1.99577      7.75143      7.25998        -0.078536      0.516727     -0.618986
O      13.59052      7.85377      7.12096         0.414006     -0.499559     -0.098224
O       2.01552      7.68660     11.72909        -0.191796      0.745660     -0.468631
O      13.61041      7.77554     11.66430        -0.081527     -0.410802     -0.289371
O       1.97598     11.71986      2.67312        -0.518609      0.471822      0.028688
O       1.89052     11.62593     15.87639         0.526613      0.275335      0.421027
O      13.66487     11.71295      2.91490         0.025549     -0.563468     -0.792764
O      13.61189     11.73623     16.01776         0.352732     -0.875220     -0.419559
O       1.97162     11.68394      7.39845        -0.269170     -0.016078     -1.050778
O      13.52226     11.76974      7.24319         0.258568     -0.879075     -0.494906
O       2.04508     11.74360     11.48327        -0.435902     -1.542477     -0.001162
O      13.64931     11.68278     11.52514         0.193488      0.509592      0.012914
O       5.84158      3.87867      2.67551         0.176321      0.278909      0.014675
O       5.79953      3.84272     15.97411         0.563125      0.168136      0.106321
O       5.81572     15.50827      2.59945         0.269131      0.276437      0.042743
O       5.73715     15.54819     16.13054         0.158065      0.188021     -0.309362
O       5.84042      3.84434      7.24177        -0.305932      0.224893     -0.896729
O       5.85166     15.59981      7.22058         0.338977     -0.554191     -0.184074
O       6.03484      3.92360     11.43562        -0.719731     -0.440934      0.230993
O       5.84835     15.58958     11.52803         0.123533      0.693533      0.015528
O       5.84748      7.79931      2.78722        -0.500739     -0.091340      0.048820
O       5.77382      7.70645     16.00608         0.853281      0.211438     -0.640124
O       5.86963      7.85501      7.15514        -0.354238     -1.067025     -0.276587
O       5.93559      7.77579     11.56952        -0.077023      0.215722      0.264266
O       5.86692     11.68496      2.70794         0.008726     -0.866372      0.232424
O       5.93194     11.57773     15.95308        -0.033496      0.614509     -0.050557
O       5.69362     11.67123      7.21649         0.268722      1.266609      0.047188
O       5.86082     11.66343     11.52100         0.289549     -0.381737      0.036793
O       9.61870      3.92793      2.64545        -0.246296     -0.234581      0.264692
O       9.72134      3.79478     16.01048         0.170539      0.851105      0.296743
O       9.75053     15.53344      2.70798         0.082837      0.169089     -0.018369
O       9.75944     15.59978     16.06352         0.249287     -0.134090      0.008980
O       9.86368      3.88304      7.26866        -0.891509      0.412330     -0.897259
O       9.74960      0.00796      7.09329        -0.033607     -0.446572     -0.283645
O       9.68884      3.89886     11.45092         0.478833     -0.489529      0.078117
O       9.78939     15.51475     11.49360         0.036403      1.478232      0.050402
O       9.77733      7.69794      2.85606         0.076008      0.393628     -0.205544
O       9.81742      7.65107     15.97659        -0.317835      0.853938     -0.614703
O       9.61594      7.87748      7.19429         0.104173     -0.739453     -0.201091
O       9.79483      7.77650     11.59478         0.095682     -0.812734      0.011331
O       9.79982     11.56624      2.59076        -0.345115      0.446994     -0.038609
O       9.70012     11.72129     15.92768        -0.118414     -0.130899     -0.043357
O       9.66093     11.72191      7.34482         0.886244     -0.217060     -0.903559
O       9.70899     11.71635     11.52794         0.201705      0.129165      0.104707
