  # total energy = -7867.36537246 
CRSYTAL
PRIMVEC
    15.010000000000000    0.0000000000000000    0.0000000000000000
     0.0000000000000000   15.010000000000000    0.0000000000000000
     0.0000000000000000    0.0000000000000000    16.400000000000000
PRESSURE
18.1795 18.286 8.18424 0.179358 -0.107994 -0.008612
PRIMCOORD
320 1
Pb       3.57921      3.67025      3.96625         0.366805      0.448875      1.151208
Pb       3.68805      3.69754     16.33477        -0.091011      0.230477      0.997350
Pb       3.82301     14.86053      4.10816        -0.259292      1.237627      0.188988
Pb       3.77029     14.97973      0.04985        -0.284838     -0.003814      0.456967
Pb       0.00329      3.78325      4.19478        -0.302776     -0.309127     -0.597977
Pb      14.94671      3.75062      0.11223        -0.081420     -0.013588      0.060644
Pb      14.96252     14.98641      4.15637        -0.296972      0.259415      0.349598
Pb       0.04819      0.01743      0.00180        -0.582301     -0.078319      0.842615
Pb       3.71420      3.71296      8.15413        -0.402255      0.443674      0.408177
Pb       3.72886      0.13033      8.21162         0.174452     -1.095869      0.211729
Pb      14.89435      3.66688      8.11341        -0.038501      0.363225      0.419541
Pb      15.00984      0.08398      8.20681        -0.458594     -0.504809      0.375406
Pb       3.74778      3.65451     12.45114        -0.260293      0.622538     -0.587145
Pb       3.71084     14.98103     12.25314        -0.267469     -0.228459      0.390452
Pb      14.89986      3.77352     12.31946         0.235970      0.521323     -0.501251
Pb      14.93842      0.00523     12.32374         0.299591     -0.551692      0.067240
Pb       3.89365      7.52505      4.17770        -0.109284     -0.504128      0.109517
Pb       3.76084      7.58947     16.28913        -0.977653     -0.416683      1.015310
Pb       0.07891      7.52505      4.12973        -0.347367     -0.086304     -0.191523
Pb       0.08086      7.43246      0.01734        -0.380974      0.735363      0.224940
Pb       3.73886      7.47036      8.36115         0.296852     -0.045486     -0.592721
Pb       0.00754      7.50718      8.15387        -0.175263     -0.369544      0.062500
Pb       3.70782      7.33935     12.39495        -0.028189      0.370577     -0.459933
Pb      14.95652      7.57291     12.31797         0.039882     -0.602574     -0.157549
Pb       3.86067     11.14433      4.03225        -0.051060      0.168867      0.290198
Pb       3.76383     11.32973      0.14372        -0.382208     -0.306255     -0.382281
Pb       0.01650     11.23481      4.14953        -0.294746      0.011876     -0.146625
Pb       0.04688     11.15126      0.05272        -0.409898      0.256335      0.141321
Pb       3.70512     11.30609      8.19771         0.130079      0.015523      0.724211
Pb      15.00270     11.28583      8.15461        -0.073152      0.421254      0.111393
Pb       3.72958     11.12670     12.34458        -0.414760      0.537119     -0.094261
Pb      14.97901     11.18529     12.29942         0.432672      0.636892      0.145143
Pb       7.42146      3.79928      4.11588         0.150342     -0.197111      0.330783
Pb       7.44134      3.68105      0.05855         0.201637      0.084582      0.127395
Pb       7.49805     14.97554      4.06254         0.225811      0.181558     -0.129091
Pb       7.64911     14.93375      0.02641        -0.795956      0.192359      0.587732
Pb       7.43580      3.81903      8.25329         0.612390     -0.489485     -0.286048
Pb       7.38699     14.91852      8.23081         0.723784      0.304227     -0.129604
Pb       7.45886      3.71082     12.39045         0.579682      0.146927     -0.124753
Pb       7.41670      0.09559     12.22934         0.151740     -0.466616      0.594281
Pb       7.62400      7.44328      4.19351        -0.939310     -0.159407     -0.104904
Pb       7.46060      7.43518     16.38719         0.342368     -0.064698     -0.216616
Pb       7.53923      7.44916      8.12257        -0.483182      0.290759      0.094353
Pb       7.43414      7.52761     12.22294        -0.019156      0.041936      0.443223
Pb       7.45279     11.13475      4.13691         0.250896      0.180960     -0.484797
Pb       7.45946     11.22614     16.37677         0.122241      0.166333      0.024160
Pb       7.51460     11.25122      8.22057        -0.073133     -0.238723      0.289589
Pb       7.46435     11.28413     12.32510         0.175675     -0.168266      0.020482
Pb      11.36664      3.73653      4.16325        -0.621206     -0.275125     -0.240728
Pb      11.22732      3.72523      0.06014        -0.102912      0.168637     -0.146718
Pb      11.17845     14.93798      4.08690         0.076341      0.534408     -0.247466
Pb      11.36767     15.00913     16.35106         0.214022     -0.084869      0.342835
Pb      11.17539      3.67224      8.31230         0.507524      0.144537     -0.096532
Pb      11.21268     14.99778      8.15760         0.059147      0.145076      0.472452
Pb      11.18842      3.74089     12.35449         0.295319      0.281483      0.032324
Pb      11.18154     14.82172     12.31654         0.672074      0.472354      0.422326
Pb      11.25988      7.50452      4.08601         0.191353     -0.188890     -0.118210
Pb      11.27074      7.44458     16.33792        -0.392763      0.156179      0.468974
Pb      11.34266      7.50393      8.20508        -0.271590     -0.312012      0.327054
Pb      11.08041      7.56194     12.35818         0.547710     -0.190500     -0.207481
Pb      11.15427     11.24103      4.10045         0.493803     -0.249400     -0.357606
Pb      11.16912     11.38328     16.38621         0.800393     -0.727740      0.070092
Pb      11.31315     11.34731      8.12224        -0.115429     -0.514403      0.707751
Pb      11.20866     11.19847     12.35455        -0.288210     -0.104546     -0.359328
Ti       1.75636      1.78438      2.20819         0.373039      0.687626     -0.410965
Ti       1.79144      1.82936     14.39652         0.386150      0.029726     -0.303906
Ti       1.83350     13.11018      2.27026         0.964631     -0.088722     -0.928945
Ti       1.81377     13.13644     14.51854         0.522210     -1.209532     -1.658034
Ti      13.08428      1.85057      2.10022         0.032058      0.746832     -0.259472
Ti      13.13802      1.90510     14.37119        -0.783486     -0.494341      1.201702
Ti      13.11843     13.13702      2.17180         0.102046     -0.258872     -1.332841
Ti      13.15761     13.12465     14.42198         0.024775      0.043680      0.103391
Ti       1.90692      1.82167      6.20591        -0.863430      0.850382     -0.748153
Ti       1.88061     13.16261      6.17128        -0.683992     -0.283721      0.645811
Ti      13.06688      1.80057      6.15609         0.502279      0.203998     -0.400141
Ti      13.07439     13.15970      6.15545         1.083915     -0.087490      0.237383
Ti       1.89617      1.83493     10.29354        -1.351997      0.461397     -0.156648
Ti       1.86221     13.11549     10.29961         0.423733     -0.852944     -0.319443
Ti      13.16181      1.87250     10.37746        -1.017743     -0.032104     -0.939466
Ti      13.16939     13.10996     10.33558        -0.153544      0.280379     -0.333374
Ti       1.81038      5.67971      2.14917         0.496292     -0.233887     -0.742330
Ti       1.75756      5.54372     14.42777         0.789703      1.196318     -0.955062
Ti      13.10358      5.67909      2.11948         0.841949     -1.010226     -0.165508
Ti      13.06335      5.63995     14.40256        -0.210581     -0.265717     -1.157800
Ti       1.81895      5.61262      6.22129         0.098736      0.811365     -0.018604
Ti      13.02852      5.54063      6.14384         1.109434      0.399221      0.995117
Ti       1.85420      5.55794     10.32087         0.110691      0.289890      0.952189
Ti      13.08501      5.68196     10.31588         0.010743     -0.488336     -0.165535
Ti       1.91527      9.41629      2.20145        -0.373036     -0.384262     -1.109850
Ti       1.83265      9.39353     14.36951         0.361375     -0.083271     -0.243453
Ti      13.11755      9.40796      2.12792         0.478035     -0.200967     -0.445094
Ti      13.13937      9.36608     14.46966        -0.554094      0.649364      0.692116
Ti       1.89177      9.39627      6.21307         0.223376     -0.506500     -0.100000
Ti      13.13596      9.33937      6.17033         0.098596      0.578111     -0.151063
Ti       1.81537      9.29016     10.32429         0.676648      1.323554      0.308598
Ti      13.07370      9.43649     10.28254        -0.810453     -0.356646     -0.557209
Ti       5.59699      1.89195      2.19158         0.201038     -0.859421     -0.523128
Ti       5.55827      1.75006     14.47503         0.916474      1.660264     -0.313968
Ti       5.64562     13.11149      2.15815         0.265666     -0.262987      0.119334
Ti       5.56503     13.15741     14.37261         0.255879     -1.520789     -0.170494
Ti       5.69882      1.86094      6.25198        -0.158047      0.186177     -1.146459
Ti       5.59572     13.12446      6.12813         0.468076      0.440802      1.494602
Ti       5.62749      1.98240     10.25110         0.725610     -0.857361     -0.529886
Ti       5.63452     13.18329     10.37348        -0.612202     -1.180472     -0.284378
Ti       5.52704      5.55776      2.10775         0.489451      1.121064     -0.048559
Ti       5.56785      5.58756     14.46435         0.712116     -0.132655     -0.165902
Ti       5.55249      5.56625      6.28670        -0.105515      0.790144     -1.503494
Ti       5.67105      5.57501     10.33706        -1.475489      2.143923     -0.275801
Ti       5.72922      9.27425      2.04169        -0.436059      0.569100      0.271808
Ti       5.58305      9.40615     14.43491         0.382741     -0.457200     -1.109287
Ti       5.59020      9.44919      6.25138         1.038570     -2.256491     -0.193158
Ti       5.51300      9.38566     10.33198         0.430209     -0.252840     -0.722116
Ti       9.40799      1.86373      2.19680        -0.844946      0.315533      0.460133
Ti       9.35065      1.79767     14.47063         0.188228      0.992270     -0.039229
Ti       9.40440     13.05362      2.10452        -1.942580      0.073136     -0.326297
Ti       9.34323     13.11588     14.46563        -0.135243     -0.098060     -0.964189
Ti       9.37497      1.82480      6.14790        -0.088376      0.510019      0.153799
Ti       9.32774     13.03942      6.18501        -0.278011      1.064721      0.258051
Ti       9.47045      1.80611     10.43423        -0.636477      1.678046     -0.715119
Ti       9.39475     13.13999     10.30220        -0.180807     -1.441906     -0.434634
Ti       9.36693      5.56783      2.22368         0.068320     -0.124545     -1.361869
Ti       9.31644      5.54835     14.44121        -0.504511      0.053635     -0.274881
Ti       9.37334      5.55126      6.21835         0.358327     -0.457692      0.103200
Ti       9.42323      5.60444     10.29124        -0.361750     -0.324495     -0.660064
Ti       9.38929      9.28882      2.08036        -0.033284      0.264883     -1.250055
Ti       9.35749      9.33519     14.45195         0.117675     -0.076474     -0.481919
Ti       9.41645      9.32614      6.19469        -0.816240      0.277747      0.854059
Ti       9.26505      9.37196     10.26754         1.444897      0.301377      0.175453
O       1.76240      1.93548      0.39537        -0.005107     -0.688838     -0.205913
O       1.90959      1.92683     12.55563        -0.122167     -0.251347      0.713257
O       2.07828     13.08847      0.44513        -0.470488      0.196074     -0.312022
O       1.70409     13.15322     12.69256         0.354717      0.110528      0.389942
O      13.20449      1.86931      0.22457        -0.353932      0.185913      0.822664
O      13.25571      2.00608     12.62056        -0.219150     -0.495396     -1.323767
O      13.00471     13.12248      0.32561         0.251135      0.373252      0.423862
O      13.24764     13.08073     12.60492        -0.271893      0.233607      0.390582
O       1.84204      1.90850      4.36725        -0.125467     -0.088518      1.043121
O       1.82772     13.10302      4.38562         0.162738     -0.048285      0.249365
O      13.06791      1.82659      4.31357        -0.122630     -0.189901      1.314010
O      13.07801     13.31260      4.33268        -0.161058     -0.706751      0.569854
O       1.81499      1.80285      8.43885         0.254015      0.143700      0.404669
O       1.96523     13.17291      8.42856        -0.148674     -0.046009      1.040466
O      13.04998      1.75304      8.53587         0.085509      0.354354      0.127487
O      13.14526     13.13446      8.49957        -0.103056     -0.369527      0.242720
O       1.80465      5.69188      0.25546        -0.052398     -0.178397      0.689686
O       1.92442      5.55769     12.55298        -0.533511     -0.326406      1.476512
O      13.14378      5.56672      0.29895         0.013275      0.185341     -0.638598
O      13.05209      5.63889     12.52556         0.347570     -0.008109      1.275841
O       1.85142      5.75006      4.41142        -0.283001     -0.600882     -0.283710
O      13.14918      5.56586      4.34749        -0.194256      0.301633      0.219234
O       1.85990      5.69674      8.54507        -0.078287     -0.076861     -0.826489
O      12.96387      5.56469      8.49071         0.433305      0.420182      0.013589
O       1.85673      9.35314      0.38288         0.073725      0.338931     -0.414258
O       1.75521      9.36967     12.54673         0.296286      0.150928      0.770877
O      13.27133      9.41156      0.32420        -0.842985     -0.189331      0.090567
O      13.09207      9.19783     12.69505         0.080274      0.868083     -0.897213
O       1.89570      9.41408      4.36706        -0.296667     -0.066170      0.729483
O      13.12791      9.40716      4.33366         0.044450     -0.049833      0.980132
O       1.95408      9.36872      8.50203        -0.060981     -0.098660     -0.329301
O      13.10865      9.51889      8.44606         0.073126     -0.307915      0.459522
O       5.61579      1.88244      0.33482        -0.230689     -0.158504      0.624702
O       5.48343      1.84401     12.60798         0.373417     -0.059285      0.400585
O       5.63052     13.03648      0.37620        -0.358478      0.135228     -1.415541
O       5.64067     13.20667     12.59377        -0.098617      0.343674     -0.354353
O       5.64121      1.78395      4.39557        -0.105547      0.441033      0.463348
O       5.71363     13.05152      4.36599        -0.205582      0.499138      0.464592
O       5.66519      1.96615      8.37872        -0.261163     -0.453290      2.055391
O       5.68730     13.06771      8.53691        -0.498061      0.243620      0.451401
O       5.53278      5.52473      0.29959         0.316634      0.194378     -0.018639
O       5.61553      5.73818     12.62509         0.174169     -0.584260      0.153029
O       5.55885      5.59009      4.42497        -0.000167      0.177986      0.694995
O       5.56061      5.60822      8.49932         0.150349     -0.472715     -0.093435
O       5.71415      9.35888      0.16425         0.006076      0.229813      1.163906
O       5.53534      9.24309     12.57790         0.312084      0.158486      0.789453
O       5.62934      9.27532      4.35008         0.255942      0.379819      0.927033
O       5.45928      9.38782      8.41804         0.263338      0.143993      0.996795
O       9.25482      1.97988      0.43053         0.481406     -0.184820     -1.324298
O       9.36318      1.92933     12.67819        -0.307233     -0.617862     -0.439772
O       9.29793     13.10473      0.23770         0.240567     -0.421608      0.952991
O       9.40116     13.12394     12.60918        -0.056758      0.285349      0.682909
O       9.39013      1.85786      4.35726        -0.177886     -0.318492      0.520188
O       9.34622     13.00333      4.35747         0.026134      0.314244      0.515702
O       9.61747      1.84272      8.63285        -0.883182     -0.005616     -0.016441
O       9.37977     13.14475      8.44847        -0.226820     -0.055901      1.316385
O       9.33402      5.57324      0.34818         0.069129      0.054500      0.447654
O       9.38680      5.50495     12.62220        -0.592904      0.360159      0.362598
O       9.46886      5.63555      4.38948        -0.274799      0.081191      0.006595
O       9.44755      5.65704      8.35896        -0.085517     -0.235001      1.616315
O       9.39458      9.35318      0.22333        -0.603503     -0.377811      0.654511
O       9.38070      9.41559     12.58805         0.005573     -0.246789      0.438725
O       9.41067      9.44424      4.40193         0.007932     -0.372823     -0.044453
O       9.29532      9.35799      8.45589         0.285812     -0.301334      0.624735
O       3.62836      1.75073      2.41338         1.481292     -0.080304     -0.113532
O       3.67504      1.98222     14.78118         0.171607     -0.362771     -0.433963
O       3.78784     13.17673      2.56162        -0.207497     -0.227492     -0.504918
O       3.71489     12.93472     14.63078         0.517085      0.272690      0.541052
O      14.88523      1.86642      2.53822         1.148941      0.181295     -0.334284
O      14.99948      1.63405     14.68785         0.078055      0.385628     -0.167252
O      14.99786     13.08436      2.41457        -0.560467     -0.462247     -0.015965
O       0.00256     13.30573     14.88271        -0.922122     -0.380960     -0.186660
O       3.74532      1.65133      6.49461        -0.407477      0.531455     -0.213074
O       3.75516     13.45783      6.37555         0.116018     -0.606842      0.122658
O      14.94998      1.98968      6.46941         0.486950      0.443543     -0.020961
O      14.99986     12.98137      6.40058         0.068428     -0.171989      0.131597
O       3.73769      1.84726     10.38444         0.540284     -0.092646      0.603788
O       3.73915     13.27258     10.74273         0.285483     -0.522053     -0.683254
O      14.95653      1.75683     10.52393         1.722667      0.745542      0.315787
O       0.03339     12.98986     10.55588        -0.263851      0.102725     -0.053483
O       3.70136      5.79127      2.40703        -0.619467     -0.379578      0.006446
O       3.71986      5.46619     14.71913        -0.988934     -0.238063     -0.352657
O      14.99079      5.49720      2.50580         0.549518      0.573620     -0.322169
O      14.91736      5.77862     14.65334         1.187714     -0.215445     -0.201143
O       3.67841      5.73237      6.46299         0.380392      0.163535      0.477011
O      14.92511      5.48824      6.58835         0.308851     -0.131801     -0.276103
O       3.73391      5.62402     10.63256        -0.053695      0.036153     -0.226836
O      14.94855      5.68586     10.61819         0.181843     -0.374506     -0.081394
O       3.85183      9.48856      2.32868        -0.206364     -0.792605     -0.059458
O       3.70437      9.58354     14.74027         0.453665     -0.321095     -0.026818
O      14.99289      9.56068      2.38781         0.416839      0.216674      0.404766
O       0.01079      9.34997     14.79191        -0.546605     -0.395147     -0.304414
O       3.77972      9.12581      6.33604        -1.025044      0.266178      0.382651
O       0.00567      9.52557      6.60917         0.130012     -0.191955     -0.846145
O       3.72466      9.29341     10.71659        -0.604780     -0.066117     -0.438044
O      14.96816      9.45524     10.64485        -0.362305     -0.254790     -0.497308
O       7.50474      2.07616      2.48992        -1.140117     -0.290752     -0.324972
O       7.48371      1.60939     14.69983        -0.883487      0.277555     -0.197548
O       7.46158     13.12564      2.44973         1.975908     -0.172015     -0.101275
O       7.45295     13.27071     14.65857         0.786700      0.147544      0.254915
O       7.53200      2.05748      6.56516         0.075202      0.130190     -0.131515
O       7.50451     12.93032      6.55899        -0.897098      0.406373     -0.484858
O       7.48043      2.04735     10.54902         0.341397     -0.444959      0.316116
O       7.48174     13.04762     10.67927         0.380674      0.335881     -0.385354
O       7.45712      5.52564      2.53931         0.129452      0.048339     -0.675687
O       7.44720      5.77177     14.74617        -0.264438     -0.192016     -0.165626
O       7.50754      5.44321      6.48783        -0.245291     -0.360535     -0.007639
O       7.51218      5.61872     10.47800         0.273769     -0.140068      0.366160
O       7.56453      9.32923      2.51704        -0.816690     -0.094070     -0.446639
O       7.48019      9.19034     14.52150        -0.006796     -0.150369      0.668893
O       7.50665      9.48324      6.54529        -0.383825      0.114191     -0.464071
O       7.42896      9.50858     10.58339         0.064981     -0.658225      0.021625
O      11.23467      1.84849      2.45877         0.362905     -0.141515     -0.345920
O      11.24376      1.96891     14.65994        -0.133032      0.382415      0.394616
O      11.16712     13.16402      2.43684         0.752508     -0.105957     -0.015401
O      11.24848     13.16417     14.72741        -0.233464     -0.624792     -0.299869
O      11.24539      1.59444      6.44200        -0.127415     -0.161126     -0.055058
O      11.19529     13.18471      6.53809         0.699189      0.545789     -0.666805
O      11.28961      1.87579     10.71221        -0.636468     -0.998329      0.528036
O      11.28190     13.14375     10.67391        -0.907513      0.170549     -0.331584
O      11.32251      5.79420      2.26628        -1.840661     -0.277232      0.619045
O      11.19216      5.53522     14.66851         0.478314     -0.529330      0.596246
O      11.25888      5.72703      6.39144        -0.499203      0.755212      0.209671
O      11.21578      5.69734     10.66175         0.352010     -0.304882     -0.205937
O      11.19907      9.33494      2.45957         1.133634     -0.303542     -0.166785
O      11.25045      9.49344     14.78186         0.329992     -0.260897     -0.296175
O      11.26303      9.20789      6.54125         0.326083      0.506695     -0.552030
O      11.15672      9.40979     10.59805         0.814131      0.025848     -0.032958
O       1.85559      3.75943      2.39501         0.046084     -0.073288      0.037686
O       1.66828      3.71926     14.76657         0.013372     -0.489161     -0.399269
O       1.72072     14.93428      2.63293         0.645175      1.094984     -0.924665
O       1.92244     14.98059     14.86263         0.862528      1.054612     -0.165664
O      13.04161      3.76832      2.43243         0.067006     -0.684429     -0.426988
O      13.30657      3.76038     14.67263        -0.133932      0.187123      0.040074
O      13.05793     14.99029      2.29547         0.047926      0.603054      0.299422
O      12.96182      0.00577     14.56491         0.352229      0.329116      0.280887
O       1.98808      3.78681      6.52455        -0.336918     -1.393541     -0.133779
O       1.57064      0.01713      6.46331         0.736337     -0.192145     -0.366870
O      12.88366      3.66740      6.48734         0.383763      0.178237     -0.041219
O      13.36072     14.98973      6.55823        -0.787757     -0.400006     -0.507528
O       1.82316      3.70409     10.58252        -0.103437     -0.429368     -0.172817
O       1.84142     14.96124     10.66826        -0.143207      0.851238     -0.203828
O      12.94688      3.73567     10.54155         1.042283      0.387901      0.167763
O      13.20613     14.93415     10.71905        -0.584342      0.605062     -0.001475
O       1.74831      7.58418      2.37558        -0.094205     -1.063867      0.294241
O       1.92942      7.51476     14.49390         0.283678     -0.780720      0.853770
O      13.27318      7.50532      2.35568         0.016431      0.905046      0.301158
O      13.03063      7.50809     14.72200        -0.089002     -0.368918      0.251349
O       1.69569      7.51427      6.42331        -0.281705      0.331125      0.409578
O      13.26050      7.48316      6.38359         0.047918      0.162164      0.361416
O       1.82438      7.51052     10.65613        -0.067625     -1.022084     -0.245430
O      13.05067      7.58384     10.45440         0.247518     -0.485474      0.131211
O       2.01985     11.26769      2.54288        -0.565482      0.178937     -0.277419
O       1.72341     11.23912     14.71759        -0.109387      0.594302      0.207880
O      12.95476     11.29918      2.35435         0.100724     -0.633670      0.556052
O      13.21120     11.32041     14.77080         0.010553     -1.278155     -0.300776
O       2.08524     11.28785      6.51934        -0.142833     -0.531276     -0.321533
O      13.10177     11.30191      6.38760        -0.747966     -0.749375      0.082371
O       1.98469     11.20900     10.68390        -0.048131      0.847227     -0.570841
O      13.04941     11.25198     10.72001         0.085989      0.003886     -0.101259
O       5.37178      3.78222      2.51381         0.642964     -1.758205     -0.506061
O       5.75818      3.66534     14.72283        -0.293524      0.303317     -0.475516
O       5.74336     14.98017      2.43408        -0.515099      1.428033     -0.101219
O       5.46686     14.95434     14.72357        -0.499720      0.517128      0.419944
O       5.43375      3.67316      6.61137         0.204981      0.996061     -0.666041
O       5.73514      0.01081      6.53496         0.679842     -1.009037     -0.059644
O       5.60580      3.80817     10.70645        -0.386224     -1.734059      0.089526
O       5.76486      0.06339     10.55248        -0.553045      0.321588     -0.203440
O       5.68611      7.45505      2.29279         0.024358      0.473342      0.079471
O       5.39115      7.44929     14.77236         0.745579      0.684300     -0.604385
O       5.77271      7.40944      6.46519         0.043612      0.953239      0.185976
O       5.61547      7.48701     10.49921         0.280706      0.300611      0.155987
O       5.74951     11.23566      2.45164        -0.390835     -0.921122     -0.405636
O       5.89145     11.26460     14.55796        -0.635952     -0.411618      0.305328
O       5.44169     11.26702      6.48222        -0.151449      0.467361     -0.245595
O       5.48204     11.25320     10.77487         0.263571      0.377774     -0.746971
O       9.51733      3.77497      2.57520        -0.008907     -0.274847     -0.480263
O       9.09558      3.69913     14.79493         0.583683     -0.263630     -0.360826
O       9.31829     14.99407      2.36257        -0.249550     -0.297269      0.142816
O       9.46886     14.98838     14.93787        -0.001198      0.235865     -0.889782
O       9.65250      3.69254      6.46106        -0.435214      0.118866      0.071258
O       9.13876      0.02983      6.54315         0.354523     -1.608140     -0.382938
O       9.42021      3.76524     10.77190        -0.072390     -0.386911     -0.944462
O       9.25538     14.98470     10.66767         0.253778      0.139265      0.016604
O       9.37830      7.44261      2.44251        -0.345382      0.493430      0.208660
O       9.43429      7.43744     14.59362         0.395723      0.490957      0.464385
O       9.20745      7.47256      6.39791         0.171763      0.181622     -0.017162
O       9.45338      7.43963     10.65107        -1.229806      1.418233     -0.350213
O       9.36430     11.15496      2.33066         0.033730      1.361514      0.109527
O       9.32244     11.23856     14.64981        -0.428435      0.538265      0.267992
O       9.49585     11.22023      6.59007        -0.015640      0.033120     -0.602311
O       9.37987     11.28030     10.62785         0.013644     -0.170114     -0.360059
