  # total energy = -7878.67445121 
CRSYTAL
PRIMVEC
    15.6000000000000000    0.0000000000000000    0.0000000000000000
     0.0000000000000000   15.6000000000000000    0.0000000000000000
     0.0000000000000000    0.0000000000000000    17.640000000000000
PRESSURE
-4.50184 -4.67208 -7.99152 -0.011106 -0.180078 0.003804
PRIMCOORD
320 1
Pb       3.75155      3.76125      4.39149         0.223895     -0.219941      0.581648
Pb       3.91013      3.93419     17.58740         0.366120      0.495203      0.159971
Pb       3.85779     15.48701      4.30945         0.185001      0.157765      0.543547
Pb       3.76323     15.57797     17.53224         0.537903     -0.539538      0.875237
Pb       0.04373      3.90332      4.34325        -0.073313     -0.278246      0.775111
Pb      15.59717      4.00064     17.63257        -0.025538      0.148910      0.026017
Pb      15.53366     15.51488      4.27170         0.068550     -0.288187      0.864283
Pb      15.46389      0.02149     17.54968        -0.319775      0.087543      0.354410
Pb       3.79576      3.97944      8.78591         0.357815      0.130799      0.459661
Pb       3.82640      0.05425      8.70814         0.584130     -0.159862      0.403069
Pb      15.54622      3.96068      8.72572         0.021468     -0.137186      0.428667
Pb      15.59257     15.58640      8.73375        -0.192254     -0.095084     -0.238877
Pb       3.93895      3.59916     13.23090        -0.228567      0.541447      0.670397
Pb       3.79465     15.48094     13.12570         0.195016      0.355094      0.562149
Pb       0.02085      3.77911     13.16770        -0.715190      0.302569      0.409300
Pb      15.57442      0.13007     13.10788        -0.070139     -0.657202      1.063595
Pb       3.88446      7.78776      4.41066         0.266515      0.439191      0.064581
Pb       3.95035      7.82068     17.59588         0.490284     -0.436192      0.222013
Pb       0.08302      7.97303      4.41930        -0.221306     -0.169539     -0.183364
Pb       0.07824      7.87122     17.49105        -0.089414     -0.635450      0.645086
Pb       3.93466      7.92689      8.84265        -0.407281     -0.515209      0.500104
Pb      15.52686      7.81449      8.89057         0.267674     -0.076353      0.137514
Pb       3.93543      7.74746     13.11115        -0.473351      0.056032      0.580291
Pb       0.11035      7.88426     13.18274        -0.088051     -0.571757      0.213182
Pb       3.91600     11.65672      4.36457        -0.041592     -0.078990      0.226383
Pb       3.94111     11.63981     17.57580        -0.285980      0.126345      0.179729
Pb      15.52532     11.57109      4.29494         0.345728      0.156629     -0.024048
Pb      15.54301     11.65378     17.47380         0.273622     -0.100888      0.138376
Pb       3.84097     11.60584      8.76910        -0.247498      0.201149      0.416846
Pb      15.48508     11.82422      8.77055         0.709429     -0.233494      0.569069
Pb       3.81591     11.82280     13.12469         0.516033     -0.079986      0.731672
Pb      15.48074     11.65384     13.13778         0.099561      0.400580      0.178662
Pb       7.87131      3.64038      4.55358        -0.248343     -0.123898     -0.428874
Pb       7.76471      3.82764     17.55714        -0.219582      0.596778      0.515672
Pb       7.66391     15.41752      4.35033        -0.227081      0.512913      0.158774
Pb       7.72732      0.00590     17.60789        -0.016294     -0.153165      0.295001
Pb       7.60777      3.93994      8.74603         0.311436     -0.229339      0.518952
Pb       7.83025     15.57781      8.70801        -0.809773      0.347186      0.719573
Pb       8.07670      4.00588     13.08553        -0.667962     -0.650888      0.719395
Pb       7.81377      0.04972     13.21259        -0.476949      0.170497      0.239295
Pb       7.97504      7.71393      4.37485        -0.490679      0.564173      0.313851
Pb       7.82837      7.90157      0.03853        -0.490547      0.026649     -0.251746
Pb       7.70242      7.84195      8.70669         0.313628     -0.012140      0.811157
Pb       7.73405      7.94087     13.10717        -0.045728     -0.070198     -0.067697
Pb       7.88083     11.72086      4.41990        -0.463618     -0.368233     -0.089852
Pb       7.76705     11.73104      0.02271         0.193573     -0.460196     -0.171556
Pb       7.86047     11.74226      8.95572        -0.315480     -0.184726     -0.234135
Pb       7.78963     11.81737     13.18814        -0.002800     -0.197573     -0.046684
Pb      11.67932      3.88233      4.44181        -0.150467     -0.495243     -0.008696
Pb      11.84694      3.82139     17.63873        -0.225298     -0.056368      0.049902
Pb      11.49148     15.35790      4.43149         0.389889      0.505050     -0.112739
Pb      11.41498     15.45419     17.62711         0.550729      0.386380      0.279238
Pb      11.51942      3.93629      8.79831         0.327449     -0.017710      0.320624
Pb      11.85650      0.07824      8.68567        -0.294539     -0.386971      0.409461
Pb      11.82391      3.94947     13.18195         0.190153     -0.284911     -0.000491
Pb      11.68178     15.53421     13.14557         0.342757      0.520636      0.618783
Pb      11.78898      7.61078      4.23801        -0.668091      0.835776      0.677203
Pb      11.67008      7.68020     17.48536         0.238234      0.357785      0.346841
Pb      11.54934      7.81247      8.69673         0.143993     -0.430751      0.154746
Pb      11.75432      7.69121     13.22688         0.018238      0.220179     -0.102410
Pb      11.66860     11.63765      4.22087         0.021003     -0.043785      0.066891
Pb      11.84068     11.54709     17.45197        -0.722278      0.019990     -0.043551
Pb      11.76643     11.60818      8.59380        -0.501860      0.459860      0.806953
Pb      11.59064     11.61924     12.98943        -0.233386      0.252981      0.921200
Ti       1.84460      1.86290      2.34277         0.494045      0.136263     -0.942701
Ti       1.91442      1.89953     15.71504         0.007990      0.723842     -1.763158
Ti       1.90134     13.54952      2.38897         0.036338     -0.763849     -1.385468
Ti       1.79434     13.63786     15.65381         0.733786     -0.349875     -2.202651
Ti      13.53213      1.92604      2.50829        -0.587934     -0.694266     -1.261091
Ti      13.63551      1.84864     15.50557        -0.659662      1.214464     -1.229977
Ti      13.63632     13.63973      2.33321        -0.557010      0.229419     -0.471427
Ti      13.51569     13.68359     15.53668         0.832265     -0.100059     -0.798349
Ti       1.94851      1.93358      6.84401        -0.240772      0.330992     -0.646073
Ti       1.96017     13.60465      6.72812        -0.696579     -0.192226     -0.873902
Ti      13.64007      2.02618      6.78705         0.073478     -0.227773     -0.679113
Ti      13.61518     13.58897      6.73078         0.334497      0.865538     -1.352466
Ti       1.90827      1.98844     11.15489        -0.176554     -0.597627     -0.360082
Ti       1.84197     13.68083     11.27475         0.098988      0.165477     -1.025381
Ti      13.57851      1.88277     11.13670         0.900510      1.251969     -0.855412
Ti      13.60815     13.66033     11.25263         0.477374     -0.150402     -1.513339
Ti       1.99369      5.85651      2.58541        -1.023308      0.188465     -2.845175
Ti       2.03144      5.83587     15.64116         0.116809      0.747107     -2.188107
Ti      13.66840      5.86340      2.57757         1.055194     -0.270458     -2.432425
Ti      13.74057      5.79417     15.61317         0.122498     -0.072099     -1.475453
Ti       1.89576      5.86278      6.87133         0.084685     -0.055914     -0.063300
Ti      13.60949      5.84717      6.77293        -0.071651      0.021238     -0.831275
Ti       1.90372      5.80074     11.35819        -0.137019      0.408734     -1.831546
Ti      13.66796      5.85003     11.19014        -0.098101     -0.639080     -0.481657
Ti       1.96643      9.72504      2.25659        -0.067573     -0.001244      0.287955
Ti       2.01399      9.75027     15.58730         0.209890     -0.675864     -0.615650
Ti      13.60249      9.69704      2.08512         1.026293      0.042087     -0.697055
Ti      13.71071      9.64894     15.45008        -0.676322     -0.074066     -0.285190
Ti       1.83234      9.73890      6.88900        -0.329724      0.554414     -1.069165
Ti      13.64359      9.65174      6.77863         0.341786      0.079853      0.295430
Ti       1.93126      9.85178     11.24381        -0.388898     -0.615349     -1.741443
Ti      13.57214      9.72359     11.16108         0.907263     -0.162906     -0.415146
Ti       5.75474      2.00364      2.46611         0.791191     -1.562880     -0.699873
Ti       5.87639      1.87566     15.69904        -0.315353      0.244434     -1.435026
Ti       5.72420     13.59833      2.37959         0.747238      0.200134     -0.652642
Ti       5.77062     13.58416     15.66182         0.301272      0.174467     -1.908793
Ti       5.79962      1.99601      6.81134         0.057077     -0.721763     -0.555897
Ti       5.78513     13.57341      6.91850        -0.189232      0.875781     -2.179407
Ti       5.84845      1.90616     11.22302         0.266032     -0.310060     -2.469662
Ti       5.84911     13.66361     11.20131         0.194624      0.600455     -1.207111
Ti       5.88471      5.79764      2.70336        -0.171512      0.483714     -3.227198
Ti       5.89337      5.88155     15.51454        -0.500020      0.058344     -1.193418
Ti       5.82587      5.92082      6.83139        -0.114976     -0.584009     -0.589593
Ti       5.76075      5.70908     11.38848         0.177199      0.681236     -1.553528
Ti       5.90757      9.69708      2.49591         0.164911     -0.132670     -1.540814
Ti       5.86042      9.78938     15.52694         0.563096     -0.632127     -0.317067
Ti       5.81690      9.74730      6.82538         0.048293      0.454693     -0.971240
Ti       5.76804      9.84524     11.25023         0.827433     -0.866108     -2.185077
Ti       9.68056      1.87445      2.46745         0.139126     -0.359991     -0.917144
Ti       9.76989      1.95364     15.67019         0.347830     -0.563918     -1.933351
Ti       9.68391     13.59386      2.39352        -0.314339     -0.359680     -1.331110
Ti       9.64956     13.55776     15.61188        -0.175431     -0.078214     -0.717639
Ti       9.74676      1.83274      6.80832        -0.623167      0.540641     -1.012562
Ti       9.68075     13.61070      6.84890         0.218742     -0.209270     -0.809079
Ti       9.78975      1.96167     11.17022        -0.496023      0.998471     -1.626975
Ti       9.74289     13.80954     11.19378        -0.539278     -1.775816     -1.597715
Ti       9.70045      5.76223      2.45613         0.151220     -0.335213     -1.752024
Ti       9.75430      5.80583     15.68904        -0.240629      0.444123     -1.009001
Ti       9.74742      5.78806      6.76676        -0.422514      0.043662     -0.292911
Ti       9.79203      5.94972     11.20545         0.396242     -1.282093     -2.126485
Ti       9.80705      9.66652      2.34698        -1.311215      0.320877     -0.702790
Ti       9.72354      9.75039     15.54262        -0.002206     -0.275576     -1.394601
Ti       9.64351      9.73190      6.77034         0.077012     -0.007165     -1.668085
Ti       9.71595      9.75756     11.08417        -0.656188      0.661669     -0.696020
O       1.74859      1.88121      0.52891         0.301849     -0.013754      1.266543
O       2.03467      1.83657     13.89092        -0.344213      0.122677      1.961959
O       1.98189     13.40137      0.57239        -0.230564      0.574642      1.199469
O       1.78046     13.76394     13.76299         0.450944     -0.440211      2.231793
O      13.57220      1.83844      0.67930         0.041105      0.229227      1.887621
O      13.64845      2.04938     13.66630        -0.231780     -0.524144      1.896728
O      13.53877     13.90212      0.54173         0.279557     -0.761305      1.355425
O      13.54136     13.74090     13.75658        -0.036683     -0.492933      0.913859
O       2.01028      2.17633      5.08839        -0.191214     -0.790640      0.590845
O       1.88216     13.59022      4.92788         0.158610     -0.101424      0.947825
O      13.55915      2.09455      5.01918         0.188406     -0.400481      0.541097
O      13.60189     13.46603      4.89876        -0.079337      0.263943      1.763849
O       1.89056      2.03893      9.37260         0.042609     -0.242923      0.800422
O       1.83943     13.50930      9.50912        -0.115492      0.584998      1.063049
O      13.67095      1.98545      9.30421        -0.231628     -0.506807      1.414587
O      13.67804     13.61960      9.40934        -0.201847      0.257681      1.579362
O       1.93364      5.84527      0.72219         0.200023     -0.208073      1.945836
O       1.91385      6.02671     13.80469         0.373226     -0.513594      1.519216
O      13.85733      5.82417      0.74791        -0.476403     -0.268939      1.492148
O      13.66267      5.72978     13.80682        -0.162613      0.137894      1.166859
O       1.94035      5.72200      5.10565         0.028559      0.521185      0.447491
O      13.52608      5.99645      4.93419        -0.098235     -0.488032      0.841708
O       1.86509      5.69489      9.49386         0.058040      0.264169      1.858344
O      13.55199      5.79570      9.41067         0.367993      0.231195      0.931146
O       2.04199      9.66807      0.47221        -0.232747      0.383126      0.777804
O       2.07180      9.66783     13.80784        -0.453868      0.242795      0.684162
O      13.72140      9.59859      0.24048        -0.637084      0.560387      2.172988
O      13.66302      9.62073     13.63077        -0.109568      0.406220      1.267607
O       1.60052      9.79530      5.00656         0.718216     -0.382660      2.260392
O      13.84181      9.72100      5.03415        -0.464133     -0.067277      0.939351
O       1.89214      9.94605      9.40707         0.342573     -0.338374      1.938298
O      13.72342      9.81761      9.35948        -0.940692     -0.305944      1.409173
O       5.90184      1.86304      0.69211        -0.159815      0.376876     -0.033301
O       5.87081      1.82550     13.90596        -0.186243      0.190957      1.382414
O       5.68000     13.60388      0.56636         0.306984     -0.253740      1.119683
O       5.86985     13.54718     13.80835        -0.204355      0.132815      1.464063
O       5.80650      1.98729      4.99342        -0.050265     -0.011526      1.286467
O       5.75256     13.58740      5.02524         0.084163     -0.070447      2.356214
O       5.78763      1.99337      9.33043         0.184890     -0.049791      2.646171
O       5.98727     13.74979      9.39666        -0.460865     -0.451372      0.954774
O       5.67786      5.89698      0.86323         0.490839     -0.331391      2.111715
O       5.90359      5.86390     13.68127        -0.093759      0.066575      0.951882
O       5.95117      5.99126      5.06002        -0.537920     -0.283001      0.232710
O       5.74728      5.64278      9.56396         0.298712      0.257998      1.616067
O       5.86925      9.59478      0.61956         0.169407      0.426274      1.792596
O       5.96759      9.88248     13.74416        -0.294771     -0.444462      0.466083
O       5.79256      9.73114      5.00248        -0.018185      0.081794      1.714928
O       5.81671      9.81566      9.35644        -0.260290     -0.124866      1.852463
O       9.84157      1.75916      0.64255        -0.621917      0.308746      0.946484
O       9.65684      1.97552     13.83253         0.286039     -0.092719      1.547330
O       9.77920     13.51571      0.57434        -0.271992      0.414394      0.707015
O       9.65007     13.49579     13.80721         0.180216      0.572345      1.168003
O       9.57297      1.77071      4.97650         0.529038      0.404311      1.655160
O       9.68534     13.64454      5.00206         0.007863     -0.342043      1.687501
O       9.77001      1.98330      9.32464         0.090291     -0.135566      2.075990
O       9.74074     13.72287      9.37148        -0.157845      0.048975      1.572920
O       9.77091      5.77159      0.64044        -0.121013      0.028858      0.678280
O       9.87574      5.88778     13.89037        -0.166266     -0.254387      1.374770
O       9.72572      5.81328      4.95794         0.042683      0.002236      1.093437
O      10.02037      5.72252      9.35986        -0.868004      1.140391      1.568303
O       9.71890      9.69135      0.53928        -0.001029     -0.018881      1.235448
O       9.63831      9.70855     13.68813         0.204775      0.108296      1.644303
O       9.57629      9.76768      4.88783         0.481054     -0.076997      2.256579
O       9.73260      9.81393      9.21711         0.069519     -0.310378      2.239020
O       3.81826      1.87993      2.79804        -0.469957      0.272187     -0.230492
O       3.88936      1.86098     16.19181        -0.011834     -0.025495     -0.744580
O       3.85495     13.54701      2.89055        -0.249944     -0.051900     -0.500554
O       3.89951     13.68792     16.00984        -0.755517     -0.429771     -0.211637
O       0.00241      1.83700      2.87920        -0.483766      0.149495     -0.374530
O      15.46598      1.94331     15.95673         1.621717     -0.061810      0.158016
O      15.53079     13.58101      2.79457        -0.087742      0.300201     -0.678691
O      15.57171     13.59448     16.12254        -0.591850      0.012201     -0.493494
O       3.88145      1.99904      7.28867        -0.360569      0.123094     -0.440840
O       3.82767     13.56460      7.23328         0.716448     -0.053523      0.028646
O      15.57591      1.96681      7.09545         0.148078      0.042894      0.266561
O       0.05363     13.71729      7.23506        -0.863568     -0.165547     -0.414443
O       3.84035      1.83742     11.68755         0.443526      0.484677     -0.605429
O       3.90171     13.69137     11.56962        -0.596341     -0.138002      0.006605
O      15.54291      1.89268     11.62270         0.539603      0.492035     -0.666515
O      15.48165     13.71033     11.75503         0.487934     -0.611411     -0.716998
O       3.80100      5.81290      3.07021         0.869607      0.146374     -0.308496
O       3.98467      5.91791     16.07261        -0.614221     -0.447352     -0.216618
O      15.57317      5.92486      3.07111        -0.240909     -0.576200     -0.763722
O       0.14925      5.85013     16.03598        -1.207629     -0.595290      0.172375
O       3.96232      5.97594      7.35931        -1.195738     -0.361857     -0.635190
O      15.53973      5.85391      7.16491         0.353664     -0.001460     -0.000314
O       3.81699      5.77929     11.77826         0.862144     -0.263318     -0.515465
O       0.01218      5.82236     11.74141        -0.304019     -0.023600     -0.513725
O       3.81815      9.76075      2.81032         0.387570     -0.324801     -0.113431
O       3.99128      9.71919     15.97042        -0.766765      0.194516     -0.174064
O      15.54633      9.65573      2.59448        -0.396393      0.308873     -0.070734
O       0.04441      9.67593     15.89389        -0.124406      0.388680     -0.353359
O       3.79453      9.71219      7.26056         0.363510      0.281959     -0.535096
O      15.56766      9.68369      7.44959        -0.710522      0.216668     -1.224680
O       3.85328      9.91547     11.61159        -0.091513     -0.566994     -0.194477
O      15.58600      9.74509     11.57822        -0.001187      0.461048      0.047071
O       7.75191      1.83731      2.87219        -0.009398      0.224197     -0.098372
O       7.80106      1.98759     16.10860        -0.669730     -0.312013     -0.042911
O       7.69821     13.59992      2.79360         0.121672     -0.060561     -0.324330
O       7.78028     13.53136     16.05071         0.343921     -0.253725      0.030563
O       7.74577      1.87271      7.19626         0.132322      0.496210     -0.269190
O       7.75473     13.66945      7.25674         0.245235      0.032339     -0.409699
O       7.82784      2.00698     11.56490         0.044962     -0.261328     -0.085266
O       7.76531     13.73751     11.67563         0.439880     -0.084988     -0.445740
O       7.84694      5.80492      2.84532        -0.967474     -0.144157      0.160482
O       7.73711      5.81691     15.94892         1.723090     -0.339271      0.264927
O       7.72858      5.88886      7.28275         0.544520      0.128806     -0.134938
O       7.92382      5.81128     11.59452        -0.638050      0.253846     -0.225771
O       7.78973      9.62812      2.79301        -0.062851      0.408106     -0.285357
O       7.83389      9.82960     16.03040        -0.440337     -0.658775     -0.051395
O       7.79244      9.71465      7.24063        -0.854680      0.008192     -0.409782
O       7.72155      9.79512     11.52135         0.919536     -0.387741     -0.199715
O      11.59296      1.85541      2.87004         0.924610     -0.026970      0.101384
O      11.72219      1.91811     15.96039        -0.459623     -0.186462      0.102397
O      11.55990     13.56262      2.78596         0.968909      0.112572      0.142130
O      11.71810     13.64163     15.99570        -1.108100     -0.094406     -0.188519
O      11.66871      1.91136      7.15708        -0.177434      0.059627     -0.289922
O      11.70503     13.67637      7.15213        -0.287175     -0.313396     -0.212618
O      11.72119      1.89511     11.55511        -0.570454     -0.037492     -0.124812
O      11.67933     13.67921     11.69892        -0.723145      0.016284     -0.633091
O      11.59330      5.72617      2.82920         1.336051      0.441452      0.199879
O      11.84631      5.78175     16.07890        -1.289612      0.283474     -0.086637
O      11.62750      5.82061      7.14517         0.210668      0.563211     -0.213672
O      11.73031      5.83705     11.63662         0.508035      0.416153      0.290853
O      11.66112      9.70638      2.58353         0.827583      0.364672      0.147576
O      11.68088      9.65148     15.84616         0.464387     -0.002222      0.109089
O      11.64276      9.78084      7.05261         0.918328     -0.077332      0.022049
O      11.60589      9.78940     11.51646         0.519434     -0.181340     -0.477582
O       1.88890      3.82157      2.84304        -0.095219      0.117026     -0.346689
O       2.08051      3.88615     15.95464        -0.408894     -0.629332      0.217263
O       1.94463     15.44687      2.77107        -0.305854      1.136387     -0.321078
O       1.85006     15.50837     16.11497         0.095906      0.749118     -0.239397
O      13.55287      3.85527      2.90159         0.406256      0.071934     -0.436049
O      13.65362      3.88982     16.13727         0.411570     -0.048241     -0.361325
O      13.53934     15.49564      3.00851         0.224105      0.460185     -0.776272
O      13.65595     15.59336     15.82403         0.073203     -0.335757      0.220316
O       1.91435      3.93950      7.29936         0.161009      0.283843     -0.381355
O       2.01712     15.55696      7.14607        -0.283828      0.784769      0.003612
O      13.57176      3.99723      7.21537         0.208098     -0.855381     -0.504657
O      13.69135     15.59728      7.23407        -0.179820     -0.016132     -0.576199
O       1.93328      3.80471     11.76087         0.112528      0.343582     -0.443662
O       1.83909      0.05337     11.66579         0.427220     -0.492540     -0.716447
O      13.70624      3.84624     11.63033        -0.364121      0.345953     -0.428761
O      13.62739     15.57510     11.61543        -0.412230      0.345953     -0.414977
O       1.92787      7.81714      2.90394         0.218479     -0.202157     -0.240300
O       1.98617      7.74744     16.14938         0.293139      0.710290     -0.789832
O      13.55511      7.87560      2.68752        -0.166829     -0.836764      0.115382
O      13.76235      7.74071     15.86523        -0.371131      0.002200     -0.032355
O       1.86883      7.83164      7.45877         0.095613     -0.402519     -0.984815
O      13.66462      7.70919      7.27162        -0.517846      1.439668     -0.336632
O       1.92408      7.81884     11.63973         0.399165      0.258001     -0.504600
O      13.65780      7.78273     11.58724        -0.233109      0.311054     -0.410294
O       1.88190     11.62727      2.78092        -0.054692     -0.141985     -0.197270
O       1.90645     11.65508     15.97381         0.237351      0.112576     -0.152139
O      13.56428     11.66188      2.55145        -0.049479     -0.461970     -0.134068
O      13.61971     11.61928     15.91106         0.344819      0.369323     -0.264097
O       1.83705     11.71070      7.18853         0.224322     -0.689730     -0.134132
O      13.67241     11.76528      7.21824        -0.024533     -1.153725     -0.601183
O       1.93715     11.78862     11.75204        -0.717484     -0.584308     -0.329476
O      13.59906     11.69213     11.60530         0.034612     -0.248123     -0.114694
O       5.84196      3.81320      2.87572        -0.086351      1.150965      0.180941
O       5.76980      3.95466     16.06592         0.245810     -1.106991     -0.067350
O       5.73905     15.56142      2.87934         0.034234     -0.543855     -0.318884
O       5.93028     15.46350     16.03759        -0.090448      1.552890      0.097328
O       5.81974      3.97199      7.22405        -0.011956     -0.493471     -0.476108
O       5.67437      0.00844      7.24353         0.489819     -0.314086     -0.360289
O       5.86386      3.78987     11.77813        -0.320800      0.301225     -0.421539
O       5.80659      0.00005     11.62639         0.387523      0.470255     -0.025967
O       5.87760      7.79676      2.96929        -0.671899     -0.380862      0.015843
O       5.85604      7.77170     15.94937         0.477230      0.655321     -0.152910
O       5.77672      7.85023      7.37598         0.415454      0.104151     -0.624344
O       5.78503      7.80629     11.57685         0.047273     -0.134179      0.063513
O       5.83850     11.67461      2.86926        -0.177858     -0.323656     -0.425124
O       5.83909     11.65710     16.04034        -0.055981      0.127341      0.156340
O       5.83683     11.64447      7.31599        -0.015568      0.367521     -0.533781
O       5.78923     11.71364     11.52575         0.278809      0.798550      0.108885
O       9.70653      3.75022      2.91569        -0.166041      0.574788     -0.254199
O       9.78134      3.78596     16.12929        -0.120966      1.454097     -0.234200
O       9.64503     15.45794      2.88354         0.295689      0.410888     -0.394561
O       9.52718     15.55296     16.01511         1.026699     -0.340502     -0.162510
O       9.71466      3.91559      7.21620        -0.277177     -0.417174     -0.756365
O       9.74105     15.58157      7.29538         0.157466     -0.254892     -0.730302
O       9.91386      3.97693     11.60410        -0.397388     -1.069028     -0.059002
O       9.70915      0.05768     11.66049         0.294059     -0.095399     -0.306129
O       9.73326      7.74596      2.74846         0.242223     -0.063838     -0.069429
O       9.75890      7.77617     16.08451        -0.162706     -0.854058     -0.347760
O       9.68898      7.82366      7.20604         0.180216     -0.357080     -0.303375
O       9.80527      7.82572     11.54970        -0.207035      0.492369     -0.351156
O       9.65316     11.65892      2.86762         0.223894     -0.203191     -0.452001
O       9.76714     11.60146     16.01941         0.320472      0.919628     -0.122562
O       9.58537     11.69310      7.23594         0.721725      0.453843     -0.474210
O       9.61690     11.77978     11.52852         0.629956     -0.570270     -0.313928
