  # total energy = -7880.89691575 
CRSYTAL
PRIMVEC
    15.6000000000000000    0.0000000000000000    0.0000000000000000
     0.0000000000000000   15.6000000000000000    0.0000000000000000
     0.0000000000000000    0.0000000000000000    17.640000000000000
PRESSURE
-2.99663 -2.62607 -1.31823 -0.167512 0.35923 0.010284
PRIMCOORD
320 1
Pb       3.94890      3.87363      4.32495        -0.671699     -0.083054      0.587168
Pb       3.97124      3.93727     17.55332        -0.132035     -0.075196      0.338796
Pb       3.76148     15.46567      4.33684         0.685426      0.844892      0.537100
Pb       3.82843      0.00959      0.01247         0.276043      0.141115      0.489533
Pb      15.52023      3.84330      4.30924         0.243150     -0.102672      0.708835
Pb       0.05798      3.89284     17.53966        -0.440954      0.088607     -0.118382
Pb       0.00204     15.56662      4.32335         0.118464      0.296961      0.477492
Pb      15.48390     15.57124     17.63118         0.461037      0.159599      0.154297
Pb       3.84153      3.97014      8.71770         0.120330     -0.305376      0.985143
Pb       3.88451     15.59001      8.75670         0.103896      0.335541      0.093744
Pb      15.57440      3.94178      8.80972         0.660419     -0.221675      0.144086
Pb      15.50702      0.05081      8.66755         0.136134      0.354260      0.642776
Pb       3.93185      3.85885     13.20159        -0.472572      0.146064      0.445816
Pb       3.94693      0.04565     13.14861        -0.140531     -0.365896      0.185521
Pb       0.03852      3.96913     13.13995         0.098364     -0.884522      1.096013
Pb      15.50358     15.53015     13.19070         0.273412      0.526613      0.491189
Pb       3.96138      7.74896      4.34668        -0.235663      0.195457     -0.015789
Pb       3.98179      7.72147     17.50912        -0.588854     -0.006954      1.148324
Pb       0.00847      7.61220      4.26197        -0.307861      1.336279      1.135521
Pb       0.06309      7.73016     17.48605        -0.625590     -0.057347      0.542158
Pb       3.82784      7.74092      8.72666         0.392834      0.536890      0.817373
Pb      15.55551      7.82319      8.72873        -0.174003     -0.070375      0.484725
Pb       3.93175      7.75646     13.15516        -0.631767      0.216407      0.197545
Pb       0.04109      7.71842     13.13009         0.068978      0.655450      0.295939
Pb       3.89181     11.63090      4.29972         0.295559     -0.259314      0.142522
Pb       3.83238     11.68208     17.54045         0.106724     -0.140532      0.544153
Pb       0.05208     11.77942      4.31589        -0.260777     -0.761652      0.248962
Pb       0.01608     11.70169     17.49730         0.298493     -0.250297      0.477941
Pb       3.83732     11.79748      8.84855         0.025764     -0.781713      0.043230
Pb      15.57726     11.69094      8.69982         0.043000     -0.159299      1.102113
Pb       3.88247     11.69784     13.14703        -0.136550     -0.028013      0.529851
Pb      15.51694     11.79786     13.15705         0.734518     -0.724319      0.532732
Pb       7.72364      3.76405      4.29559         0.525052     -0.184891      0.894220
Pb       7.81083      3.93328     17.61580        -0.242107     -0.635112      0.858191
Pb       7.66763     15.52461      4.37767         0.142057      0.394667      0.264606
Pb       7.72248      0.01423     17.53055         0.170689     -0.255172      0.842416
Pb       7.67386      3.92328      8.79190         0.460317      0.139003      0.399450
Pb       7.72816      0.06559      8.76809        -0.008096      0.261434      0.032223
Pb       7.75238      3.88957     13.26820         0.129550     -0.040502     -0.454643
Pb       7.81459      0.07664     13.08184        -0.215592      0.107765      0.341089
Pb       7.78925      7.66314      4.31377         0.339803      0.116184      0.885950
Pb       7.77196      7.71876     17.50096         0.168254      0.669343      1.126929
Pb       7.73033      7.81405      8.77115         0.234141     -0.245621      0.620101
Pb       7.83804      7.72984     13.19402        -0.283603      0.120446     -0.143724
Pb       7.73524     11.53137      4.27411         0.141299      0.822453      0.922729
Pb       7.80186     11.63340     17.40605        -0.492110     -0.064779      1.228749
Pb       7.76381     11.72667      8.60431         0.269112     -0.702529      1.160123
Pb       7.72818     11.75539     13.07123         0.216104     -0.437481      1.442605
Pb      11.75815      3.79662      4.23358         0.059197      0.238004      0.995525
Pb      11.60796      3.81905     17.60268         0.326297     -0.088482      0.395748
Pb      11.68057     15.54852      4.27381         0.442858     -0.118061      1.170797
Pb      11.70888     15.57136     17.61366        -0.452029     -0.162304      0.222296
Pb      11.70420      3.89024      8.67574        -0.816322      0.167949      1.464168
Pb      11.63292      0.01338      8.72626         0.607506      0.345929      0.694863
Pb      11.70725      3.87326     13.11509         0.141826      0.276990      0.291986
Pb      11.62615      0.05281     13.13497         0.587614     -0.288609      0.829334
Pb      11.63184      7.78389      4.35534         0.100696     -0.071330      0.457573
Pb      11.67285      7.75604     17.58966         0.542983      0.552672      0.544005
Pb      11.69733      7.80804      8.73384        -0.141532     -0.545558      0.457690
Pb      11.65217      7.80440     13.07442         0.483702     -0.078131      1.162001
Pb      11.66767     11.50077      4.35677         0.205954      0.788326      0.424777
Pb      11.58413     11.72787     17.58142         0.575143     -0.399715      0.812460
Pb      11.61535     11.78731      8.88664         0.176543     -0.208851     -0.060180
Pb      11.65694     11.70549     13.24819        -0.001590     -0.357387      0.699780
Ti       1.93759      2.01899      2.40819         0.581597     -0.706677     -0.611071
Ti       2.01192      1.92357     15.67249        -0.748475      0.822754     -2.255025
Ti       2.02687     13.62257      2.45206        -0.635324     -0.084627     -1.240925
Ti       1.94935     13.76708     15.64209        -0.991630     -1.195946     -1.224648
Ti      13.71117      1.88522      2.30722        -0.484250      0.347008     -0.037542
Ti      13.64341      1.86159     15.65556         0.019756      0.743968      0.904135
Ti      13.71317     13.60550      2.43589        -1.093413     -0.260403     -0.637124
Ti      13.61987     13.54693     15.76325         0.034100      0.540907      0.410441
Ti       2.02727      1.95950      6.80488        -0.768353      0.936328     -0.099897
Ti       1.96359     13.64335      6.84422         0.384714      0.145875     -0.372957
Ti      13.69228      2.05951      6.88675        -0.703488     -1.267694     -0.814587
Ti      13.70699     13.59521      6.86748        -0.856071      0.602959     -1.533537
Ti       1.94946      1.88509     11.25193        -0.610345      0.776634      0.239615
Ti       1.94591     13.73684     11.27146         0.622516     -1.370161      0.828022
Ti      13.68453      1.89873     11.21555         0.614047     -0.068818     -0.055513
Ti      13.65212     13.59359     11.29905        -0.379008      0.237274     -1.753769
Ti       1.83887      5.86019      2.37438         1.741881     -0.491041     -0.886514
Ti       1.95354      5.82621     15.69842        -0.289629      0.002238      0.273082
Ti      13.56537      5.89938      2.41339         0.392589     -0.114863     -1.963177
Ti      13.48692      5.80172     15.68453         2.071255     -0.386687     -0.193558
Ti       1.95549      5.90385      6.85021        -0.216317     -2.063224     -1.279948
Ti      13.60633      5.79624      6.85020        -0.052180      0.702344     -1.518331
Ti       1.95840      5.73032     11.28031         0.672452      1.449839      0.775029
Ti      13.67899      5.76658     11.25794        -0.609013      1.338861     -0.024789
Ti       1.90054      9.66626      2.40719         0.704834      0.748291      0.528091
Ti       1.98151      9.70830     15.64875         0.225783      0.070393     -0.373399
Ti      13.68043      9.73957      2.35059         0.390126     -0.733813     -0.491704
Ti      13.68132      9.64756     15.54999        -0.614029      0.061481      0.115568
Ti       1.92868      9.76078      6.78836         0.697830     -0.211397     -0.933810
Ti      13.62361      9.75771      6.78892         0.136150     -0.811386     -2.051405
Ti       1.93351      9.77323     11.22200         0.182824     -0.446445     -0.140751
Ti      13.62519      9.75724     11.26644         0.843249     -0.676844      0.302060
Ti       5.80537      1.93597      2.38877         0.164876     -1.071983      0.798893
Ti       5.83020      1.94744     15.58590         0.444242      0.377280      0.359185
Ti       5.89186     13.66122      2.43307         0.139674      0.201423     -0.902723
Ti       5.75570     13.67787     15.58638         0.434505     -0.540278     -0.240533
Ti       5.80210      1.98839      6.79789         0.735241     -0.400185      0.312630
Ti       5.87296     13.61888      6.83891        -0.585152      0.180559     -1.724886
Ti       5.78472      1.97924     11.17759         0.445003      0.069222     -0.421254
Ti       5.93546     13.61856     11.19610        -1.799566      0.463304      2.047062
Ti       5.77943      5.84531      2.43389         0.383122     -0.699784      0.072935
Ti       5.87231      5.84998     15.65286        -1.056719     -0.430140      0.990814
Ti       5.85678      5.85348      6.83764         0.460086     -0.030164      0.244729
Ti       5.82737      5.80116     11.30493         0.084993      0.381520     -0.854060
Ti       5.86603      9.73949      2.34315        -0.580243      0.063017     -0.519865
Ti       5.78557      9.72890     15.62983         0.527014      0.537777      1.030972
Ti       5.87125      9.70487      6.83015        -0.689415      0.054251     -0.242203
Ti       5.85728      9.73016     11.28777        -0.577179     -0.625195     -1.288095
Ti       9.79133      1.85452      2.43339        -1.076914      0.933586     -1.387293
Ti       9.72534      1.95229     15.66408        -0.381909     -0.981493      0.248146
Ti       9.78741     13.67158      2.54290        -0.000188     -1.255174     -1.110770
Ti       9.66312     13.59914     15.68719         0.670098      0.711090     -1.788047
Ti       9.71630      1.96500      6.88975        -0.097313      0.538092     -0.615033
Ti       9.77228     13.68101      6.85754         0.436552      0.078421     -2.354524
Ti       9.79860      2.00087     11.25579        -0.880253     -0.240830     -1.750358
Ti       9.82576     13.62197     11.33789        -0.214584      0.216108      0.091096
Ti       9.69124      5.75256      2.49926         0.139214      0.025503     -0.636639
Ti       9.71048      5.80792     15.67286        -0.227704      0.172049     -1.327958
Ti       9.71768      5.80879      6.85195        -0.392988      0.453127     -1.573653
Ti       9.75568      5.79683     11.24771        -0.794350      0.418350     -0.376075
Ti       9.72873      9.70661      2.43100         0.143588      0.035182     -0.318449
Ti       9.76737      9.68211     15.60820         0.063811      0.427383     -0.241256
Ti       9.79502      9.71527      6.82760        -0.424448     -0.825450     -0.428632
Ti       9.72413      9.75449     11.30087        -0.572362     -0.246768     -0.693582
O       2.01371      1.88539      0.65265        -0.002499      0.229382     -0.034602
O       2.03933      1.86334     13.80556        -0.077531      0.128468      2.423009
O       1.99024     13.58873      0.70217        -0.040078      0.318201     -0.072457
O       1.79316     13.67810     13.86762         0.446466      0.496401      0.800621
O      13.66283      1.81599      0.54308         0.012140      0.104116      1.033088
O      13.49919      1.78569     13.93350         0.253827      0.465557     -0.523878
O      13.72352     13.64640      0.66785         0.080209      0.100100      0.402796
O      13.66438     13.65815     14.06578        -0.149463     -0.238144     -1.688682
O       2.07539      2.11961      5.07124        -0.410190     -0.609121      0.065596
O       1.97324     13.54140      5.09693        -0.030474      0.031212     -0.249384
O      13.62159      2.11741      5.14130         0.256287     -0.081171     -0.184236
O      13.63746     13.53563      5.10266         0.331518      0.413701      0.750578
O       1.90923      1.97385      9.52816         0.054449     -0.351114     -0.590421
O       1.95338     13.68451      9.56249         0.182502     -0.107888     -1.273222
O      13.78370      1.90005      9.48932        -0.119679      0.092599     -0.235139
O      13.66772     13.49620      9.52980        -0.350025      0.293425      0.037248
O       1.86711      5.91818      0.60260        -0.019954     -0.407935      0.600421
O       1.96302      5.89179     13.99714        -0.141586     -0.216885     -1.831009
O      13.75518      6.00689      0.58728        -0.636658     -0.450691      1.809762
O      13.63385      5.74896     13.95143        -0.463953     -0.067724     -0.545519
O       2.00877      5.68351      5.10539        -0.169445      0.828986      0.426448
O      13.62393      5.66643      5.06465         0.167133      0.375469      0.903549
O       1.91791      5.88149      9.59029        -0.016988     -0.339547     -2.011484
O      13.61349      5.82208      9.54287         0.320680      0.109039     -0.701883
O       2.01521      9.73716      0.71730        -0.230272      0.025592     -1.532730
O       2.15463      9.60687     13.92898        -0.472025      0.173772      0.323858
O      13.69801      9.48000      0.59993        -0.294961      0.818754      1.229004
O      13.57002      9.61334     13.77538         0.493309      0.374165      1.131229
O       1.87085      9.61692      4.99539         0.191463      0.553560      1.472689
O      13.65488      9.62609      4.95878        -0.185010      0.563032      2.146638
O       1.97557      9.82995      9.44094        -0.164612     -0.027511      0.534092
O      13.74755      9.78208      9.53168        -0.391213     -0.016390     -0.357989
O       5.84153      1.77554      0.67542        -0.294092      0.220048     -0.652957
O       5.88197      2.07097     13.82727        -0.057418     -0.484878      0.497029
O       5.92723     13.83053      0.69520        -0.326548     -0.189711      0.158359
O       5.76553     13.58887     13.85162         0.137812      0.288067      0.148263
O       5.95052      1.87531      5.06670        -0.439872      0.607759      0.061605
O       5.74896     13.58895      5.06004         0.363825      0.149221      1.000672
O       5.74974      2.00698      9.39952         0.402976     -0.251882      0.876632
O       5.89341     13.74140      9.51165         0.047052     -0.192532     -2.110406
O       5.84931      5.82467      0.70670         0.040841     -0.061422     -0.445584
O       5.78755      5.75717     13.97459         0.439067      0.163895     -2.253572
O       5.75032      5.78335      5.12181         0.138131      0.153338     -0.975182
O       5.75894      5.73713      9.56563         0.092670      0.368853     -0.377797
O       5.89651      9.80305      0.60995         0.131174     -0.516253      0.361393
O       5.76587      9.73913     13.92348        -0.071598     -0.053831     -0.716743
O       5.81559      9.69408      5.08966         0.029122     -0.112629     -0.142926
O       5.89052      9.73009      9.50516        -0.115131      0.067878      0.523831
O       9.66532      1.91393      0.67306         0.616104     -0.121138      0.369051
O       9.60109      1.90417     13.91484         0.468587      0.241775     -0.109046
O       9.84482     13.63078      0.78589        -0.337950     -0.172656     -0.120709
O       9.77221     13.50594     13.89886        -0.190525      0.440329      0.985132
O       9.64640      1.92477      5.14796         0.390963     -0.196593      0.028193
O       9.86350     13.80363      5.03998        -0.356167     -0.407645      1.822492
O       9.74964      1.95272      9.48830        -0.131653      0.036983      0.565606
O       9.85942     13.51914      9.61983        -0.007709      0.119297     -0.920340
O       9.69391      5.70772      0.73714        -0.023732      0.178971     -0.010776
O       9.60476      5.81848     13.88867         0.276920      0.045926      1.080886
O       9.61702      5.91984      5.06923         0.552645     -0.401405      0.362425
O       9.80265      5.79156      9.53109        -0.067457      0.014749     -0.449938
O       9.78137      9.84084      0.69893        -0.117688     -0.219390     -0.098120
O       9.65580      9.79188     13.86545         0.248865     -0.464498      0.097858
O       9.78483      9.66243      5.06002         0.059262      0.124631      0.996303
O       9.62760      9.88153      9.55193         0.432297     -0.323261      0.496141
O       3.82031      1.87354      2.81583         0.756870      0.494106      0.026143
O       3.95987      1.97493     16.04212         0.002697     -0.379171     -0.009121
O       3.87561     13.66318      2.79618         0.372360     -0.229734      0.281796
O       3.82958     13.68007     16.02046         0.484997      0.247545      0.044679
O      15.59229      1.84411      2.71844        -0.550490      0.344521      0.367315
O       0.02328      1.90395     16.09475         0.065727      0.504916     -0.484177
O       0.02051     13.69057      2.87105        -0.003781     -0.507682      0.098470
O       0.00396     13.67008     16.04571         0.203676     -0.030420      0.532781
O       3.88392      2.02539      7.33597         0.293591     -0.511444     -0.688299
O       3.93301     13.63757      7.29851         0.167222      0.170236      0.064399
O      15.54965      2.09259      7.29354         0.754757     -0.839276     -0.247663
O       0.04219     13.71176      7.23253        -0.441955     -0.356761     -0.177396
O       3.86052      1.90094     11.62108         0.732043      0.052885      0.003437
O       3.94907     13.60458     11.62431        -0.693704      0.535949     -0.076076
O       0.06148      1.95348     11.69546        -1.161314     -0.035929      0.047676
O      15.53281     13.59285     11.61321         0.494042      0.087091      0.437495
O       3.87176      5.72112      2.85150        -0.092171      0.525221     -0.311060
O       3.90363      5.70891     16.02760         1.111434      1.127094      0.491220
O       0.05172      5.73518      2.91998        -1.322941      0.875226     -0.631881
O      15.57676      5.69064     15.98265         0.158804      0.555947      0.405894
O       3.96919      5.81717      7.28412        -1.421119      0.540045     -0.103538
O       0.01410      5.84457      7.23118        -0.430793      0.052412      0.124379
O       3.86892      5.78638     11.68911         0.183373      0.017915      0.242575
O       0.01647      5.80027     11.77728        -0.488902     -0.137257     -0.662440
O       3.96089      9.60385      2.76018         0.145835      0.299702      0.457621
O       3.90006      9.67576     16.27152        -0.044636      0.473793     -1.032500
O       0.01866      9.69125      2.71897        -0.973202      0.116847      0.245227
O      15.58898      9.73849     16.05357         0.625684     -0.402968     -0.575311
O       3.81322      9.80667      7.15699         0.272808     -0.372947      0.186511
O      15.54449      9.76615      7.28751         0.518595     -0.284728     -0.433786
O       3.89243      9.72827     11.69717         0.243537      0.064739     -0.313923
O       0.01422      9.82680     11.67172        -0.036361     -0.251066     -0.016818
O       7.78242      1.92242      2.71695         0.300794     -0.231041      0.585231
O       7.75752      1.91969     16.24520         0.131168      0.411717     -1.305634
O       7.81832     13.58520      2.88571        -0.537417      0.370299      0.032809
O       7.71182     13.53376     16.00177         1.014212      0.470434     -0.233498
O       7.77064      2.08735      7.24421        -0.085009     -0.901859      0.353830
O       7.83345     13.68921      7.28118        -0.326829      0.016170     -0.273049
O       7.83888      1.99672     11.61663        -0.594291     -0.500234      0.033457
O       7.74442     13.67934     11.67347         1.294774     -0.008543     -0.190062
O       7.76154      5.71793      2.98727        -0.051103     -0.059878     -0.883141
O       7.76931      5.77873     16.19928         0.715195      0.832933     -0.793352
O       7.79248      5.95662      7.21639        -0.515456     -0.455200      0.407202
O       7.74280      5.73975     11.54774         0.464476      0.188191      0.824605
O       7.82456      9.72343      2.91703        -0.891389     -0.287680     -0.743114
O       7.78179      9.71450     16.03119         0.430804     -0.041826     -0.162014
O       7.79458      9.57848      7.26396         0.506895      0.945747     -0.423528
O       7.72943      9.64942     11.76021         0.919194      0.801797     -0.177134
O      11.75361      1.87186      2.78393         0.150813     -0.057522     -0.220282
O      11.63757      1.90335     16.16500        -0.057612      0.423079     -0.559971
O      11.74565     13.57999      2.78083         0.136409      0.408532      0.482071
O      11.67678     13.65494     16.21309         0.101491     -0.317948     -0.501502
O      11.69886      2.00990      7.29673        -0.597430     -0.258466     -0.225033
O      11.65805     13.66459      7.32563         0.372287     -0.481701     -0.024439
O      11.74110      1.87912     11.50752        -0.494433      0.484718      0.771875
O      11.75062     13.58225     11.84233        -0.508527      0.479003     -0.555846
O      11.71118      5.86762      2.89773        -0.024036     -0.072392     -0.544319
O      11.62051      5.81604     16.09223        -0.284361     -0.190925     -0.080779
O      11.65919      5.81737      7.28339         0.720557     -0.087571     -0.206165
O      11.65424      5.96335     11.71084         0.664229     -1.278207     -0.274640
O      11.63786      9.71521      2.87956         0.383985     -0.218683     -0.514145
O      11.69420      9.71130     15.98279         0.041893     -0.188705      0.064070
O      11.75575      9.68428      7.33250        -0.725544      0.826408     -0.512132
O      11.69598      9.67994     11.75365        -0.820694      0.378056     -1.025807
O       1.82356      3.88118      2.74131         0.509923      0.210624     -0.018179
O       2.14782      3.94166     16.04188        -1.176462     -1.944191      0.355527
O       1.93574      0.00105      2.89432        -0.220977     -0.627339     -0.134139
O       1.92622      0.08753     16.15657         0.416623     -0.950839     -0.374987
O      13.65162      3.94797      2.71531        -0.031846     -0.973476     -0.142605
O      13.59447      3.84350     16.14707        -0.247341     -0.027398     -0.215583
O      13.70714     15.59554      2.97406        -0.246997     -0.195701     -0.943958
O      13.67603     15.57288     16.10384        -0.347946     -0.038929      0.105470
O       1.92037      3.85023      7.24062         0.141148      0.942679      0.488968
O       1.97139      0.00349      7.16874         0.064742      0.040252      0.186439
O      13.60892      3.93274      7.37718         0.425832      0.348673     -0.273320
O      13.55586      0.06625      7.24865         0.678883     -0.736467     -0.038628
O       1.95611      3.87544     11.70074        -0.079124     -0.450965     -0.005186
O       1.87423     15.56632     11.67834         0.352550     -0.016000     -0.086903
O      13.58827      3.86304     11.55390         0.133045      0.109022      0.640407
O      13.66126     15.59457     11.64186        -0.109224     -0.514989      0.102283
O       1.92711      7.78740      2.77765         0.017693     -1.376960      0.341784
O       2.10068      7.73188     16.06675        -0.725832      0.815806      0.072059
O      13.55819      7.80990      2.87065         0.708514     -0.604958     -0.102707
O      13.64633      7.75693     16.04864        -0.172337     -0.095896     -0.437104
O       1.91886      7.75520      7.25053         0.093665      0.984610     -0.163206
O      13.53410      7.75475      7.19673         0.799733      0.126701      0.232674
O       1.98323      7.74898     11.57239        -0.427382      0.664135      0.512141
O      13.73605      7.76774     11.64134        -0.298644     -0.076512     -0.027743
O       1.99007     11.63747      2.84130        -0.174800      0.566009      0.177306
O       1.94823     11.70296     15.94914         0.140499     -0.108731      0.414636
O      13.63757     11.67293      2.82057         0.400184     -0.135781     -0.302631
O      13.70320     11.61746     16.14389        -0.462304      0.245410     -0.604279
O       2.02949     11.75383      7.34293        -0.825928     -0.412133     -0.600426
O      13.71387     11.69508      7.14951        -0.387634     -0.135346      0.300505
O       1.98345     11.67493     11.81198        -0.460818      0.338187     -0.787878
O      13.54872     11.68229     11.68414         0.254772     -0.042497      0.210876
O       5.85981      3.79534      2.90859        -0.436355      0.525899     -0.692057
O       5.89173      3.97619     16.06329         0.041957     -1.741541      0.163236
O       5.74632     15.58701      2.95416         0.499653     -0.196714     -0.271619
O       5.88299     15.58978     15.95407        -0.300815      0.247536     -0.186384
O       5.84961      3.95099      7.33340        -0.148458     -0.313205     -0.702976
O       5.85478      0.05168      7.10847         0.055235     -0.520266      0.790074
O       5.79737      3.88225     11.70391         0.064287     -0.791968     -0.037546
O       5.82071      0.05712     11.65286         0.325540     -0.073660     -0.228061
O       5.88091      7.69601      2.82858        -0.104915      0.526531     -0.159136
O       5.85696      7.79818     16.05859         0.064319     -0.356496     -0.185096
O       5.80777      7.81369      7.30240        -0.323853     -0.244146     -0.111989
O       5.87845      7.75914     11.69311        -0.252432     -0.002822      0.072826
O       5.75838     11.71176      2.63177         0.350260     -0.618817      0.786010
O       5.79221     11.66514     16.10253        -0.227990      0.372052     -0.429039
O       5.91504     11.66590      7.11060        -0.074661      0.413919      0.586691
O       5.83376     11.68515     11.69545         0.222211      0.045834     -0.698882
O       9.92562      3.83290      2.74043        -0.816107     -0.326201      0.472982
O       9.64688      3.91330     16.03130         0.507829     -0.517545      0.126668
O       9.76839     15.57031      2.85720        -0.077667      0.170937      0.022420
O       9.82065     15.58146     15.99868        -0.771314     -0.351414      0.135586
O       9.68828      3.93850      7.25306         0.211185     -0.748160      0.073568
O       9.73188     15.56403      7.38814        -0.270447      0.473375     -0.413263
O       9.68221      3.87773     11.73448         0.996070     -0.100778     -0.051758
O       9.83194     15.54892     11.64916        -0.694495      0.484149      0.042335
O       9.62658      7.68252      2.74821         0.434045      0.928104      0.253702
O       9.78639      7.76247     16.19075        -0.698530     -0.096769     -0.899646
O       9.80809      7.71526      7.22034         0.114020      1.527646      0.570907
O       9.62541      7.75508     11.63647         0.357163      0.616576      0.086904
O       9.70497     11.64629      3.04037         0.317556      0.029433     -0.688288
O       9.86637     11.66634     16.06339        -0.857484      0.045245     -0.196106
O       9.74103     11.64125      7.23416         0.028386      0.346644     -0.185132
O       9.77223     11.72321     11.70378        -0.193211     -0.869837      0.072986
