  # total energy = -7882.62537904 
CRSYTAL
PRIMVEC
    15.3600000000000000    0.0000000000000000    0.0000000000000000
     0.0000000000000000   15.3600000000000000    0.0000000000000000
     0.0000000000000000    0.0000000000000000    17.440000000000000
PRESSURE
0.409052 0.002407 1.09372 -0.174094 -0.332181 0.016559
PRIMCOORD
320 1
Pb       3.87132      3.77953      4.29772        -0.134671      0.123730     -0.434001
Pb       3.74810      3.84884     17.42951         0.324388     -0.556529     -0.181627
Pb       3.83717     15.30941      4.31658        -0.342404      0.226260     -0.648290
Pb       3.82072     15.26392     17.40910         0.199752      0.426859     -0.270896
Pb       0.02261      3.82691      4.29427        -0.453313     -0.069624     -0.424500
Pb      15.26893      3.77622     17.34606         0.156212     -0.038042      0.033601
Pb      15.35238      0.01300      4.37979        -0.459131      0.029843     -0.425805
Pb       0.13613      0.02967     17.37367        -0.668344     -0.481648     -0.476242
Pb       3.89047      3.81158      8.69967        -0.361245     -0.240694     -0.775882
Pb       3.82978     15.35192      8.55232        -0.195025      0.076032      0.126524
Pb       0.13395      3.83054      8.74025        -0.327948     -0.296792     -0.661447
Pb      15.35839     15.28640      8.69344         0.260139      0.305780     -0.331885
Pb       3.85960      3.87388     13.11101         0.202124      0.429222     -0.527043
Pb       3.93171      0.11113     13.10839        -0.508398     -0.569057     -1.114482
Pb       0.02113      3.86239     12.99755        -0.933274     -0.161557     -0.092763
Pb      15.32990     15.30054     13.10613        -0.213745      0.488838     -0.860909
Pb       3.79060      7.65357      4.36644        -0.133970     -0.398144     -0.333198
Pb       3.89608      7.68509     17.37279        -0.265602     -0.339631     -0.066616
Pb      15.23796      7.67038      4.32585         0.122944     -0.131144     -0.507340
Pb       0.05950      7.55491      0.02545        -0.381887      0.365101     -0.556425
Pb       3.72470      7.72812      8.60056         0.313216     -0.619761      0.244690
Pb      15.34586      7.72770      8.64026        -0.519512     -0.009190     -0.459789
Pb       3.88944      7.70053     13.02098        -0.334666     -0.487354     -0.436036
Pb      15.26295      7.66373     13.00343         0.032521     -0.317518     -0.232715
Pb       3.93636     11.46597      4.40859        -0.247575      0.163346     -0.763199
Pb       3.68672     11.59918     17.43816         0.148188     -0.232024     -0.522601
Pb      15.26017     11.38414      4.42909        -0.112485      0.024630     -0.583551
Pb       0.02001     11.47725      0.02183        -0.104608      0.122043     -0.500600
Pb       3.89234     11.44324      8.63345        -0.670994      0.616704      0.441046
Pb      15.35860     11.61866      8.68359         0.118561     -0.360282     -0.189213
Pb       3.77519     11.51677     13.07399        -0.104956      0.155820     -0.954227
Pb      15.29791     11.50097     12.96789        -0.176745      0.021732     -0.337681
Pb       7.60571      3.89427      4.25558         0.279422     -0.417414     -0.398033
Pb       7.59031      3.76987      0.06188         0.382116      0.251931     -0.254740
Pb       7.58974     15.24351      4.40660         0.805121      0.511568     -0.791724
Pb       7.80896     15.30964     17.43785        -0.436898     -0.198481      0.268931
Pb       7.66429      3.86829      8.63139         0.002347     -0.106540     -0.394011
Pb       7.66322      0.11206      8.73636         0.211321     -0.816960     -0.619838
Pb       7.64324      3.75871     12.96613         0.073206      0.661641     -0.166696
Pb       7.63143     15.28272     13.09601         0.187157     -0.382050     -0.822762
Pb       7.71913      7.73588      4.39391        -0.067921     -0.127220     -0.592259
Pb       7.61260      7.71062     17.38247         0.335000     -0.688383     -0.069650
Pb       7.75974      7.53210      8.73715        -0.350292      0.416986     -0.691757
Pb       7.76721      7.72119     13.12337         0.352696     -0.519553     -0.976961
Pb       7.63950     11.49472      4.35852         0.322843     -0.036755     -1.054406
Pb       7.66986     11.41701     17.37321        -0.042766      0.432649     -0.287313
Pb       7.66220     11.57042      8.71830         0.122670      0.097342     -0.134989
Pb       7.56082     11.45799     13.00957         0.293109      0.454043     -0.439044
Pb      11.49710      3.92225      4.32007         0.056059     -0.714891     -0.588659
Pb      11.48320      3.83171     17.42675        -0.331507     -0.563809     -0.760592
Pb      11.56819     15.34832      4.44654        -0.286568      0.119771     -0.827096
Pb      11.52672      0.01955      0.05848         0.148903      0.017223     -0.774674
Pb      11.55386      3.68806      8.68107        -0.149369      0.182014     -0.453553
Pb      11.52617      0.10399      8.73477        -0.493120     -0.439545     -0.764260
Pb      11.50220      3.81816     12.95600        -0.003450     -0.130398     -0.207473
Pb      11.51224     15.35878     13.10862         0.188532      0.148597     -0.447175
Pb      11.50561      7.61519      4.41860         0.223759      0.143416     -0.768467
Pb      11.49071      7.74614     17.35783        -0.243075     -0.230273     -0.527081
Pb      11.53090      7.67627      8.68060         0.140496      0.322621     -0.181202
Pb      11.56551      7.60321     13.15460        -0.413637      0.343673     -0.939691
Pb      11.46713     11.57085      4.28400        -0.103025     -0.002786     -0.255641
Pb      11.52170     11.49977     17.41572        -0.093422      0.030739     -0.456528
Pb      11.51805     11.51798      8.63797        -0.063449     -0.078421     -0.378944
Pb      11.52131     11.56599     13.12311        -0.044817     -0.613292     -0.788588
Ti       1.86229      1.85962      2.29895         0.269531      0.702105      0.965980
Ti       1.92635      1.85494     15.25391        -0.156714      0.109133      2.756186
Ti       1.87725     13.32206      2.41321         0.294866      0.906053      0.840817
Ti       1.87236     13.36845     15.22060        -0.562111      0.220389      1.076750
Ti      13.35624      1.85209      2.26622        -0.424159     -0.026446      0.820465
Ti      13.41760      1.85421     15.39496        -1.526577     -0.415580     -0.339953
Ti      13.50805     13.36040      2.26521        -1.214264      0.842866      1.630299
Ti      13.44563     13.36226     15.39583        -0.207885      1.204506      2.267321
Ti       1.84942      1.90975      6.59002         0.630131     -0.052171      1.820325
Ti       1.91817     13.40513      6.59513        -0.782720      0.280952      1.186799
Ti      13.41316      1.88399      6.64978         0.001312      0.143690     -1.035188
Ti      13.43279     13.39782      6.59796        -0.644241      0.231241      1.058259
Ti       1.92315      1.96487     11.04680        -0.799392     -2.071662      0.890832
Ti       1.83625     13.41368     11.04816         0.853021      0.886775      0.124341
Ti      13.38920      1.90170     10.96862         0.297201     -0.111430      1.249524
Ti      13.36008     13.44994     10.87120         0.246876     -0.207065      1.897277
Ti       1.88262      5.73222      2.27133         0.020877      0.360916      2.955349
Ti       1.85980      5.66614     15.36319         0.815738      0.582959     -0.171031
Ti      13.41698      5.66654      2.20426        -0.035386      0.391113      1.095307
Ti      13.39647      5.73626     15.37879        -0.191390     -0.391739      0.832991
Ti       1.88121      5.74470      6.56665         0.185472     -1.039535      1.364196
Ti      13.42196      5.70591      6.69566         0.502347     -0.074686     -0.111651
Ti       1.85603      5.70675     10.99020         0.193857      0.323768      1.985929
Ti      13.36919      5.76193     10.87017        -0.068737      0.341438      0.205080
Ti       1.85633      9.59812      2.37590        -0.568676     -0.413186      0.868919
Ti       1.90556      9.50028     15.37967        -0.557921      1.111422      1.556634
Ti      13.28671      9.53861      2.23537         1.285599      0.024819      1.835035
Ti      13.47694      9.58935     15.39190        -0.640161     -0.149161      1.536938
Ti       1.87704      9.57584      6.65394        -1.494407      0.580575      0.044190
Ti      13.35883      9.56702      6.57616         0.304576      0.108582      2.313232
Ti       1.81912      9.52647     11.05016         0.446560      1.075319     -0.117518
Ti      13.34963      9.57882     10.92914        -1.147425     -0.100747      0.789222
Ti       5.73438      1.82249      2.24790        -1.114705      1.251235     -0.719340
Ti       5.71332      1.92834     15.38932        -0.145163      0.001161      0.520755
Ti       5.75468     13.42795      2.16732        -0.570366     -0.297515     -0.015276
Ti       5.72310     13.46281     15.34110         0.225172     -0.418953      3.297257
Ti       5.78014      1.90151      6.61026        -1.296379      0.001283      0.218322
Ti       5.81278     13.39208      6.63787        -0.725112      0.767876      2.527451
Ti       5.76467      1.86076     11.02437        -1.134953      0.456560     -0.021130
Ti       5.71495     13.44117     10.97509        -0.526078     -0.430665      0.538038
Ti       5.77488      5.80787      2.39561         0.056176     -0.199091     -0.664141
Ti       5.80457      5.70714     15.36536        -1.162641     -0.404431      0.118675
Ti       5.72927      5.74113      6.67576        -0.611340     -0.415589      0.154719
Ti       5.73859      5.74135     10.92888         0.063909     -0.499209      2.707127
Ti       5.64529      9.57211      2.23455         0.619924     -0.304810      1.377642
Ti       5.70280      9.58347     15.33435        -0.052924      0.734708      1.134294
Ti       5.69788      9.52563      6.68822         0.714761      0.191942      0.935748
Ti       5.69806      9.60010     11.00785        -0.168132     -0.317202      0.110713
Ti       9.53284      1.86847      2.33841         0.546416     -0.116504      0.723997
Ti       9.43112      1.78287     15.30387         2.739418      0.993743      1.195688
Ti       9.60665     13.39947      2.21923         0.010450      0.434406      1.050197
Ti       9.55227     13.38261     15.44079         0.912656     -0.129076      0.422606
Ti       9.50568      1.92924      6.58727         0.549478     -1.297847     -0.798349
Ti       9.59182     13.37477      6.62580         0.119366      1.693591      0.760227
Ti       9.51696      1.87533     10.98028         1.429782     -0.101743      0.228815
Ti       9.65669     13.35113     10.99556        -1.025972      0.717579     -0.276256
Ti       9.60422      5.76068      2.26088        -0.408876     -0.704506      0.264432
Ti       9.56423      5.59088     15.32215         0.061087      0.566602      1.015990
Ti       9.69172      5.73633      6.54768        -1.575510     -0.157358      1.126170
Ti       9.55855      5.76747     10.90259        -0.231822     -0.219094      3.455806
Ti       9.50360      9.53303      2.31514         0.120733      0.680085      0.265862
Ti       9.54073      9.56397     15.35178         1.172675     -0.613742      0.126213
Ti       9.50770      9.56616      6.69317         1.182807      0.160041     -0.986151
Ti       9.52345      9.62215     10.98545         1.140456     -0.894555      2.009399
O       1.79015      1.96370      0.54783         0.180269     -0.507093     -0.090754
O       1.93802      1.90225     13.54457        -0.011035      0.102888     -0.826413
O       1.85143     13.29216      0.67772        -0.009220      0.259462     -1.071642
O       1.83555     13.31137     13.47462        -0.035470      0.280922     -0.501090
O      13.16386      1.85860      0.48484         0.846351      0.298919      0.497083
O      13.39696      1.76588     13.60218        -0.188403      0.134812      0.312558
O      13.48171     13.33562      0.54882         0.196915      0.134370     -0.830985
O      13.41075     13.49294     13.69030        -0.007992     -0.447518     -1.779584
O       1.94204      1.91226      4.88078        -0.409293      0.059067     -1.457415
O       1.95167     13.51219      4.86276         0.057322     -0.397325     -0.883066
O      13.40311      1.86739      4.84176        -0.033009      0.185907      1.214775
O      13.31835     13.45974      4.85751         0.276131     -0.293908     -0.062668
O       1.78376      1.92529      9.33525         0.173500      0.049356     -1.466523
O       1.67186     13.38256      9.27129         0.398511      0.361408      0.169663
O      13.35616      1.92526      9.22084        -0.135946     -0.065030     -1.082365
O      13.44273     13.50227      9.15340        -0.288094     -0.223274     -1.156152
O       1.89290      5.74084      0.57276         0.019143      0.128490     -1.712977
O       1.76695      5.64919     13.59596         0.185801     -0.041190      0.019041
O      13.44489      5.70406      0.44695        -0.156612      0.019135     -0.165310
O      13.39990      5.68703     13.62069         0.102625      0.406547      0.240767
O       1.90138      5.73265      4.84935        -0.226866      0.007255     -0.885390
O      13.37932      5.73345      4.91338        -0.020768     -0.131883      0.376663
O       1.91556      5.65257      9.28537        -0.050069      0.314184     -1.094381
O      13.24367      5.90629      9.06283         0.636015     -0.613434      1.176540
O       1.94630      9.68400      0.65232        -0.428648     -0.126184     -1.431122
O       1.95408      9.59116     13.68785        -0.109464      0.019914     -2.424273
O      13.42497      9.54463      0.50945        -0.151764     -0.071771     -0.243073
O      13.40396      9.65887     13.66488        -0.018980     -0.163013     -1.161659
O       1.80153      9.74314      4.90434         0.666706     -0.430497      0.009560
O      13.35991      9.64369      4.87159         0.026922     -0.211666     -1.460192
O       1.76177      9.60149      9.29785         0.499755     -0.581506     -0.233362
O      13.30425      9.35387      9.18680         0.221904      0.446136     -0.133294
O       5.46205      1.97330      0.47127         1.086430     -0.509110      0.568894
O       5.76257      1.85642     13.59047        -0.258252      0.342890     -0.156774
O       5.72036     13.48950      0.39571        -0.209950     -0.303992      0.021441
O       5.82694     13.46939     13.65109        -0.159479     -0.213223     -1.445279
O       5.87848      1.86414      4.86516        -0.454553      0.048876     -0.885669
O       5.86448     13.38429      4.92063        -0.349171      0.078743     -1.098521
O       5.66247      1.87170      9.27197         0.339888     -0.212892     -0.213846
O       5.66961     13.49573      9.23477         0.007420     -0.349386     -1.061268
O       5.80663      5.97386      0.61932        -0.306203     -0.507157      0.097754
O       5.63381      5.54512     13.61638         0.597743      0.342145     -0.050327
O       5.60724      5.73065      4.94168         0.672586     -0.014374     -1.186373
O       5.73315      5.68066      9.22170         0.107369      0.262389     -1.776975
O       5.74010      9.35281      0.49724        -0.061992      0.661526     -0.223857
O       5.64741      9.78866     13.59696         0.209327     -0.967158     -0.412023
O       5.66101      9.62976      4.96273        -0.003562      0.028984     -0.812137
O       5.62775      9.54025      9.25290         0.040356      0.275019     -0.492406
O       9.56758      1.78583      0.57322        -0.067711      0.458502     -0.041273
O       9.62761      1.86289     13.54223        -0.611960     -0.317807      0.013686
O       9.54759     13.47277      0.44829         0.009555     -0.542042      0.325871
O       9.50146     13.53520     13.69460         0.184914     -0.411803     -0.728448
O       9.54207      1.85357      4.79813        -0.421859      0.056678      0.748059
O       9.62474     13.57299      4.87844        -0.572456     -0.598609     -0.377610
O       9.64365      1.92211      9.20463        -0.623556     -0.126082      0.138250
O       9.53936     13.32647      9.22942         0.229547     -0.205804      0.220493
O       9.50954      5.66360      0.51725         0.189395      0.172812     -0.813818
O       9.54840      5.60448     13.58030        -0.050085      0.139768     -0.210387
O       9.59927      5.83561      4.79277         0.145625      0.025221      0.293483
O       9.36631      5.73968      9.20121         0.260218     -0.035865     -1.400564
O       9.62330      9.61296      0.55837        -0.386079     -0.283380     -0.021423
O       9.54553      9.48895     13.59313        -0.120654      0.393240     -0.587834
O       9.61454      9.52776      4.87981        -0.632655     -0.099600      0.857188
O       9.66651      9.56701      9.28053        -0.568264      0.165917     -1.812434
O       3.78087      1.92154      2.62428        -0.217554     -0.582527      0.666221
O       3.82862      1.89911     15.82247        -1.313539      0.192969     -0.659891
O       3.83925     13.49364      2.63225        -0.324499     -0.050557      0.559537
O       3.71967     13.35704     15.81701         1.408426      0.217377     -0.487990
O      15.24908      1.87789      2.74936         0.579631      0.529103     -0.322929
O      15.34126      1.83464     15.67961         0.562222     -0.146280      0.287362
O      15.31526     13.36878      2.77296         0.764298      0.059915      0.104755
O       0.00717     13.49160     15.71951         0.025403     -0.023655      0.228995
O       3.81401      1.87801      6.90147        -0.269272     -0.001600      0.602024
O       3.73042     13.49003      7.03756         1.056432     -0.406425     -0.084684
O      15.28656      1.95352      7.03854         0.049637     -0.077646     -0.042661
O      15.32980     13.39704      7.07338        -0.482060     -0.071119     -0.433022
O       3.79675      1.90430     11.38596         0.798485      0.179862      0.431894
O       3.79307     13.42789     11.42683         0.076837      0.075926      0.111637
O      15.20209      1.82191     11.47447         0.895659      0.163921      0.028020
O      15.20778     13.30325     11.40035         0.574409      0.601366      0.222518
O       3.84702      5.86831      2.80691        -0.408353      0.118909     -0.417125
O       3.79177      5.69726     15.60164        -0.066447     -0.078795      0.772730
O      15.33991      5.64402      2.64734        -0.256747      0.295343      0.028770
O       0.00299      5.75313     15.80679        -0.659206      0.098670      0.180437
O       3.76263      5.63112      6.90468         0.272129      0.394002      1.033904
O      15.35451      5.59851      7.03891        -0.559216      0.473673      0.071413
O       3.74735      5.63985     11.46129         0.580630      0.196752     -0.124313
O      15.27162      5.79574     11.38599         0.587432      0.138298     -0.205333
O       3.74607      9.36162      2.68560         1.486202      0.719293      0.221390
O       3.80368      9.54831     15.80672         0.614417      0.365281     -0.019577
O      15.22915      9.60786      2.84313         0.184338      0.256561     -0.458040
O      15.30939      9.50482     15.76165         0.957203      0.164112      0.364738
O       3.75638      9.52068      7.14890         0.202079      0.488039     -0.354088
O      15.33200      9.55550      7.00227        -0.207975     -0.037466      0.218533
O       3.81957      9.56121     11.43172        -0.609977     -0.102011      0.224632
O      15.24546      9.62948     11.32752         0.958839     -0.370248      0.601705
O       7.57467      1.96411      2.64298         0.875253     -0.055102     -0.064127
O       7.61566      1.89408     15.82273        -0.041801     -0.331065     -0.164300
O       7.55920     13.35592      2.60415         1.168016     -0.016845      0.395636
O       7.70009     13.38637     15.85955        -1.346681      0.084813     -0.321050
O       7.59411      1.79939      6.98850         1.211673      0.627696      0.729591
O       7.61994     13.36252      7.17844         0.061859      0.000760     -0.488734
O       7.63830      1.74216     11.39004         0.705030      0.282358     -0.057502
O       7.59814     13.43599     11.31920         1.257424     -0.289457      0.588815
O       7.66199      5.68119      2.66889        -0.564972     -0.032149      0.658566
O       7.64325      5.66510     15.76558         0.199793      0.233572     -0.027925
O       7.59099      5.76030      6.99055         1.235629      0.109799      0.386838
O       7.63198      5.69067     11.52648         0.204812      0.367594     -0.659443
O       7.61542      9.75510      2.73452         0.074176     -0.456018     -0.057151
O       7.68671      9.60582     15.69745        -1.278033     -0.344659      0.279204
O       7.62637      9.58515      7.06768        -0.142419      0.009634      0.033514
O       7.57772      9.62278     11.39337         0.606772     -0.362834      0.301738
O      11.43407      1.94649      2.81260         0.379369     -0.321506     -0.449437
O      11.46222      1.82238     15.72189        -0.631021      0.294598      0.122906
O      11.46588     13.44643      2.70287         0.206500     -0.215922     -0.328484
O      11.54948     13.37831     15.76978        -0.753271     -0.366214      0.091729
O      11.40023      1.89276      7.01416         0.851656     -0.229359      0.398434
O      11.42101     13.36436      7.05555         1.182845      0.454523      0.041535
O      11.48757      1.92731     11.30558        -0.402762      0.492562      0.493613
O      11.53861     13.26928     11.43715        -0.759656      0.254299      0.006363
O      11.48100      5.82117      2.68620         0.442470     -0.119858     -0.073127
O      11.45231      5.72108     15.68561         0.424177     -0.255324      0.298378
O      11.45702      5.67957      7.05198         0.139298      0.366832     -0.320994
O      11.43869      5.78310     11.40814         0.348711     -0.370003     -0.386721
O      11.44298      9.52496      2.70918         0.280994     -0.178051     -0.115966
O      11.54002      9.62970     15.81301        -0.193159     -0.250544      0.072881
O      11.47202      9.56298      6.98554        -0.125587     -0.121152      0.332966
O      11.42915      9.55570     11.42123         0.494154     -0.212000      0.260390
O       1.91628      3.86306      2.73986         0.110927     -0.495163     -0.095304
O       1.78034      3.78799     15.90003         0.640387     -0.251917     -0.872287
O       1.76977      0.02875      2.82939         0.697637     -0.589816     -0.540246
O       1.92742     15.28427     15.76267         0.051405      0.897132     -0.323848
O      13.35982      3.81862      2.67602        -0.082204     -0.103425     -0.048494
O      13.42333      3.77628     15.79130        -0.022833      0.549972      0.000331
O      13.38648     15.33928      2.73058         0.062736     -0.142780     -0.329412
O      13.31861     15.34731     15.92139         0.951283     -0.537866     -0.307767
O       1.88493      3.77260      7.16642         0.067637      0.146215     -0.341738
O       1.74902     15.34222      7.06014         0.435152      0.026486     -0.104555
O      13.32020      3.79736      7.07041        -0.015353     -0.050911      0.054219
O      13.39955     15.31720      6.99058        -0.218241      0.139558      0.242294
O       1.74098      3.79355     11.38563         0.206033      0.978805      0.263179
O       1.92113      0.03251     11.47034        -0.620805     -0.802575      0.139760
O      13.48343      3.94472     11.38280        -0.677563     -1.041755     -0.283739
O      13.24486     15.32701     11.33271         0.364313     -0.306801     -0.056251
O       1.72048      7.75509      2.75503         0.248816     -1.705919      0.014103
O       1.93066      7.69386     15.76230        -0.304352     -1.428089      0.286084
O      13.44192      7.53887      2.75038        -0.095921      1.391213     -0.319529
O      13.39339      7.63622     15.88331         0.020384     -0.170605     -0.583385
O       1.82012      7.62679      7.01824         0.425419      0.214104      0.145337
O      13.44327      7.66289      6.98439        -0.248282     -0.389429     -0.020239
O       1.88544      7.66699     11.52121        -0.037055     -0.060497     -0.335455
O      13.39332      7.61594     11.46035        -0.079490      0.507881      0.129574
O       2.02374     11.48615      2.74653        -0.259683      0.095518      0.563574
O       1.82862     11.54914     15.73074         0.121780     -0.919014      0.467883
O      13.44472     11.50029      2.74825        -0.751772     -0.681427     -0.341986
O      13.49237     11.50008     15.95362         0.034670     -0.255641     -0.730250
O       1.81149     11.48174      7.12683         0.682755      0.140288     -0.336904
O      13.36987     11.47746      7.07108         0.205923      0.271023     -0.219478
O       1.95094     11.55693     11.34949        -0.465654     -1.592542      0.666230
O      13.29378     11.44414     11.28362         0.426603      0.274905      0.209410
O       5.66352      3.78981      2.63130         0.108907      0.941787      0.457465
O       5.69147      3.77808     15.87976         0.238034      1.032791     -0.158115
O       5.71359     15.31509      2.54466         0.158817      0.052982      0.639066
O       5.66797      0.04717     15.66678         0.040217     -1.530460      0.260216
O       5.77451      3.79942      7.14107        -0.182836      0.039160     -0.148647
O       5.70080      0.01404      7.04163         0.207204     -1.134434     -0.003580
O       5.81105      3.79705     11.29373        -0.226725     -0.472439      0.499221
O       5.77541     15.27496     11.44867        -0.580396      1.278805      0.452002
O       5.96310      7.74794      2.79948        -0.871846     -0.302775      0.120369
O       5.72720      7.62041     15.83175         0.223372      0.350276     -0.879448
O       5.63369      7.65750      7.02593         0.052858     -0.023607      0.291844
O       5.76902      7.58922     11.35070        -0.447851      0.769917      0.421770
O       5.66694     11.48867      2.72937        -0.577495     -0.351599     -0.247025
O       5.78714     11.46250     15.81383        -0.382951      0.282891     -0.211860
O       5.63930     11.51383      7.04970         0.011837     -0.339605      0.060084
O       5.72019     11.50540     11.44650        -0.157311     -0.063068     -0.155819
O       9.59773      3.90309      2.71508        -0.227119     -1.189981      0.123418
O       9.52245      3.70213     15.83784         0.044651      0.387901     -0.338597
O       9.50136     15.30629      2.64371        -0.326716      0.147894      0.092000
O       9.56541     15.26923     15.91565        -0.184766      0.911114     -0.761343
O       9.55955      3.79356      6.93019        -0.536688      0.903028      0.257192
O       9.47169     15.32770      7.06007         0.146364      0.051973      0.236121
O       9.51134      3.80943     11.38368         0.055478     -0.346954     -0.248652
O       9.74364     15.25268     11.30998        -0.574532      0.736946      0.194804
O       9.39929      7.61421      2.65314         0.220442      1.541866      0.263346
O       9.60671      7.67312     15.62954        -0.171357     -0.799025      0.531275
O       9.60680      7.64997      7.12409        -0.559869     -0.230614     -0.377865
O       9.55199      7.64830     11.44045        -0.708393     -0.148259     -0.108542
O       9.60131     11.50931      2.72900        -0.170371      0.018701      0.015156
O       9.61134     11.42456     15.83946        -0.229634      1.077538     -0.070340
O       9.63728     11.52139      6.97706        -0.852224     -1.376914      0.401271
O       9.56500     11.46142     11.44001        -0.275056      0.558138      0.287031
