  # total energy = -7881.88400342 
CRSYTAL
PRIMVEC
    15.3600000000000000    0.0000000000000000    0.0000000000000000
     0.0000000000000000   15.3600000000000000    0.0000000000000000
     0.0000000000000000    0.0000000000000000    17.440000000000000
PRESSURE
1.95677 1.49723 0.158591 0.095653 0.041848 0.007689
PRIMCOORD
320 1
Pb       3.94449      3.78584      4.34721        -0.669094     -0.117431      0.313946
Pb       3.84955      3.80439     17.43862         0.132655      0.015669     -0.490615
Pb       3.79999      0.02646      4.36090         0.057153     -0.421751     -0.121719
Pb       3.84792     15.30173     17.31905        -0.446473     -0.048806      0.162843
Pb       0.06246      3.84422      4.32371        -0.357149     -0.138706     -0.339892
Pb       0.00461      3.79262     17.41642         0.202537     -0.244400      0.057792
Pb       0.04494      0.01999      4.37861         0.334846     -0.135962     -0.561894
Pb      15.26432      0.09950     17.34514         0.501251     -0.560274     -0.054053
Pb       3.74814      3.88699      8.61661         0.210357     -0.464827      0.695714
Pb       3.71690     15.26348      8.69160         0.084459      0.677492      0.311033
Pb      15.16987      3.92016      8.67327         0.681640     -0.728715      0.328077
Pb      15.28936     15.27255      8.70926         0.228929      0.021285      0.296348
Pb       4.02968      3.69551     12.98733        -0.766388      0.854337      0.375261
Pb       3.83641     15.35118     12.96603        -0.114749      0.085596     -0.094791
Pb       0.01861      3.77795     13.00816        -0.317518      0.125263      0.272929
Pb      15.26331     15.19372     13.00727         0.231187      1.013003      0.675587
Pb       3.85040      7.69123      4.30237         0.207338      0.204515      0.075890
Pb       3.78847      7.69189      0.02815         0.157222     -0.278088     -0.076392
Pb       0.06169      7.65918      4.26844        -0.574976     -0.003135      0.196488
Pb       0.10371      7.68683      0.04540        -0.026472     -0.086608     -0.311701
Pb       3.72315      7.64923      8.63222         0.561851      0.064558      0.134558
Pb      15.19535      7.67239      8.66192         0.616080      0.421548      0.356954
Pb       3.89547      7.59708     13.09252        -0.387073     -0.222370      0.045492
Pb      15.35316      7.68315     13.03858         0.121338     -0.326950      0.033505
Pb       3.82163     11.48462      4.36141         0.383690      0.375000     -0.396004
Pb       3.80395     11.51990     17.40442        -0.138937      0.319649     -0.066857
Pb       0.06745     11.55457      4.24547        -0.145620     -0.078296      0.392667
Pb      15.23056     11.45164      0.01514         0.841786      0.354931     -0.332895
Pb       3.84828     11.43382      8.68751         0.004950      0.686449      0.162333
Pb       0.03360     11.50342      8.71347        -0.386370      0.422853      0.114300
Pb       3.86872     11.36658     12.94452         0.146710      0.314483      0.295019
Pb       0.09988     11.42245     13.01106        -0.399011      0.311011      0.290691
Pb       7.64208      3.81536      4.17404         0.644486      0.197855      1.287592
Pb       7.70532      3.75960      0.05887        -0.067045      0.164654     -0.549974
Pb       7.63205     15.28564      4.37625         0.217718     -0.082642      0.210345
Pb       7.52904     15.32515     17.39970        -0.084318      0.343770     -0.240161
Pb       7.48356      3.91465      8.60716         0.715598     -0.085665      0.748775
Pb       7.65950      0.09236      8.72316        -0.046084     -0.064009     -0.006544
Pb       7.74123      3.85744     13.00431        -0.394180     -0.110799     -0.471850
Pb       7.71352      0.03037     12.93838        -0.159532     -0.422084      0.024821
Pb       7.70528      7.64697      4.31472        -0.219031     -0.175055     -0.150782
Pb       7.58028      7.69531      0.01411        -0.236707     -0.452257     -0.031124
Pb       7.74675      7.61553      8.72495        -0.496272      0.072599     -0.251290
Pb       7.72276      7.68856     13.12532        -0.130841     -0.108232     -0.201013
Pb       7.64215     11.38928      4.33826        -0.168663      0.510795      0.080565
Pb       7.56967     11.63323     17.23216        -0.294297     -0.510602      0.907278
Pb       7.80404     11.53608      8.75269        -0.691548      0.187171     -0.408184
Pb       7.71186     11.61759     12.95384        -0.104864      0.321300      0.002587
Pb      11.51668      3.72633      4.26618        -0.161505      0.207083      0.594707
Pb      11.58669      3.84826      0.12339        -0.545205     -0.255686     -0.114014
Pb      11.65855     15.32119      4.36082        -0.721579      0.172741      0.152580
Pb      11.27735     15.28171      0.01703         0.532268      0.342255     -0.146032
Pb      11.53781      3.83851      8.60649        -0.279802     -0.214470     -0.054524
Pb      11.42950      0.06313      8.69301         0.227311     -0.230231     -0.473023
Pb      11.45787      3.76836     12.99794         0.421980      0.411379      0.024170
Pb      11.40802     15.28799     13.11933         0.483876      0.180809      0.044083
Pb      11.57135      7.51163      4.31943         0.191671      0.339179     -0.245496
Pb      11.39022      7.74666     17.40505         0.400894     -0.411565     -0.032346
Pb      11.59902      7.70004      8.63090        -0.067894      0.261996     -0.025800
Pb      11.39288      7.54169     13.16764         0.543670      0.522613     -0.545694
Pb      11.44885     11.50512      4.23422         0.280705      0.018191      0.678824
Pb      11.42811     11.51188     17.35207         0.293769      0.169777      0.804972
Pb      11.36694     11.40828      8.70949         1.200108      0.289394     -0.135979
Pb      11.59057     11.49309     13.05223        -0.271175     -0.315086      0.374819
Ti       1.96287      1.90734      2.36731        -0.784457     -0.846142      0.093168
Ti       1.94063      1.93177     15.36874        -1.000805     -0.462727     -0.077172
Ti       1.95115     13.41737      2.25289         0.715819      0.349899     -0.948245
Ti       1.93613     13.49669     15.31236        -1.206950     -0.341545      0.542387
Ti      13.45918      1.84267      2.27001        -0.029337      0.901622      0.319350
Ti      13.28936      1.88308     15.51137         0.965928     -0.969750     -1.448767
Ti      13.40792     13.42065      2.35117         0.903331      0.274814      0.536965
Ti      13.47021     13.30930     15.44773         0.318130      2.131188     -0.856696
Ti       1.85624      1.98904      6.70774         0.258380     -0.926008     -0.768084
Ti       1.93282     13.46649      6.67539        -0.688189      0.425532      0.307344
Ti      13.47485      1.85634      6.65373        -0.994456      0.560214      0.928737
Ti      13.39322     13.39349      6.73003        -0.279652     -0.110713      0.145795
Ti       1.88083      2.01240     10.98124        -0.767198     -1.054358     -0.171202
Ti       1.92677     13.46669     11.15016        -0.447252      0.670888     -1.364745
Ti      13.34953      1.93590     11.06539         0.611190     -0.570399     -0.364110
Ti      13.43431     13.48565     11.13232        -0.001160     -0.789025     -0.906058
Ti       1.96023      5.75665      2.38865        -1.269547     -0.360318     -0.290135
Ti       1.87113      5.74515     15.49299         0.416811     -0.480267     -0.509300
Ti      13.45215      5.69300      2.35012         0.298611     -0.125982      0.288273
Ti      13.34252      5.69427     15.50982         0.783851      0.142661     -0.255036
Ti       1.86731      5.78633      6.65718        -0.091101      0.124814     -1.305115
Ti      13.46622      5.71889      6.66027        -0.605496      0.249224     -0.723818
Ti       1.92002      5.83559     10.99270        -0.431549     -0.782596      0.460573
Ti      13.44067      5.78117     11.01543        -0.207181     -0.627078      1.376881
Ti       1.94727      9.57366      2.28092         0.613335      0.390279     -0.581115
Ti       1.96900      9.64573     15.41760        -0.810259      0.492465     -0.796079
Ti      13.48684      9.67926      2.32421         0.072896     -1.318922      0.161005
Ti      13.36828      9.51918     15.47294         1.239126      0.173853     -0.275528
Ti       1.91101      9.63505      6.64446        -0.492440      0.029917     -0.880975
Ti      13.48234      9.64700      6.68587        -0.530002     -0.202606     -2.095235
Ti       1.95525      9.59455     10.97522        -0.519148     -0.331234      1.498578
Ti      13.39053      9.59590     11.08114        -0.812273      0.494483     -1.190559
Ti       5.79053      1.89673      2.38932        -0.217233     -1.067227     -1.528472
Ti       5.73354      1.87455     15.34847         0.824597     -0.076434     -0.179660
Ti       5.72872     13.49440      2.30566        -0.905624     -0.387583      0.135617
Ti       5.68184     13.34841     15.26818        -0.292046      0.989813     -1.504261
Ti       5.69813      1.97747      6.75196         0.066359     -0.904826      0.271128
Ti       5.76741     13.52661      6.80491         0.036735     -0.566704     -0.857626
Ti       5.76425      1.91141     11.03939         0.102100      0.594736     -0.515903
Ti       5.73604     13.38802     10.96719         1.220976      0.297050     -0.100675
Ti       5.70518      5.73590      2.40331         1.178008      0.333463     -1.583478
Ti       5.72571      5.71222     15.40438        -0.092778     -0.655711     -0.174595
Ti       5.64570      5.79091      6.59335         1.164445      0.532059     -0.346487
Ti       5.74829      5.82670     11.05387         0.049466     -0.684354      1.224030
Ti       5.78775      9.67576      2.33228        -0.185494     -0.796098     -0.103163
Ti       5.70093      9.48337     15.32704        -0.003416      0.384858      0.597360
Ti       5.75972      9.66387      6.72272         0.248359     -0.542465     -1.063325
Ti       5.73318      9.48874     10.90852        -0.362114      0.469992      1.193216
Ti       9.58727      1.82301      2.43407        -0.380108      1.006565     -1.413190
Ti       9.52455      1.84199     15.35613        -0.583691      1.150505      1.123931
Ti       9.56383     13.40278      2.35623        -0.312865      0.290689     -0.400682
Ti       9.57761     13.42823     15.45788        -0.490110     -0.689317     -2.205845
Ti       9.52564      1.99039      6.73139         0.542375     -0.759488      0.575062
Ti       9.53096     13.41678      6.70930         1.026101      1.141699     -0.496077
Ti       9.61315      1.95896     11.00118        -0.663078     -0.357430      1.245389
Ti       9.74152     13.39489     10.95759        -1.377412      0.558375      1.635852
Ti       9.56335      5.72416      2.32109        -0.129287     -0.475515      0.682018
Ti       9.58073      5.79034     15.42804        -1.172196     -0.959942     -0.201699
Ti       9.58964      5.80717      6.74817        -0.537801     -1.478042     -1.955772
Ti       9.59713      5.80609     10.94340         0.116773     -0.213201      1.344120
Ti       9.68128      9.59244      2.26362        -1.484049      0.008731      1.172313
Ti       9.54202      9.65849     15.48189        -0.131999     -0.445182     -0.685315
Ti       9.60050      9.56089      6.57246         0.327122      0.326275      1.064748
Ti       9.48384      9.57488     11.07332         1.375777     -0.096527      1.263385
O       1.89276      1.73096      0.64352         0.448193      0.705366     -0.245726
O       1.90454      1.99673     13.60227        -0.004731     -0.168324      0.387852
O       2.07827     13.45203      0.45230        -0.271188     -0.177126      1.010034
O       1.80568     13.61229     13.53165         0.644609     -0.583742     -0.561624
O      13.34833      1.87633      0.50790        -0.137852     -0.045872     -0.488794
O      13.41279      1.85542     13.73478        -0.461143      0.499277      0.360521
O      13.60849     13.36155      0.66236        -0.348663     -0.029669     -1.444395
O      13.31909     13.34938     13.67967         0.275452     -0.103733     -0.108745
O       1.77226      1.92637      4.86563         0.474300      0.091532      0.786071
O       1.85782     13.51626      4.91970         0.537837     -0.475743      0.585404
O      13.43041      1.91727      4.91815        -0.048408     -0.553107     -0.415680
O      13.41774     13.47317      4.97637        -0.253485      0.014319     -0.830943
O       1.92083      1.94648      9.20174         0.002913      0.162416      0.655067
O       1.75910     13.51825      9.36646         0.549575      0.023112     -0.237800
O      13.29479      1.94616      9.29243        -0.250778      0.084840     -0.541289
O      13.42045     13.44246      9.37979        -0.048583      0.156719     -0.738505
O       1.92895      5.84435      0.63173         0.273308     -0.089119     -0.756805
O       1.83126      5.72324     13.75701        -0.203513      0.074536     -0.414164
O      13.23640      5.65570      0.61975         0.158566      0.266246     -0.971136
O      13.40470      5.73000     13.78626         0.005867     -0.198552     -0.943505
O       1.74838      5.77063      4.82016         0.468797     -0.042840      1.355801
O      13.52109      5.55176      4.91832        -0.277534      0.991131     -0.544836
O       1.83202      5.86555      9.22929         0.214553     -0.295744     -0.297330
O      13.51994      5.83152      9.26418        -0.198501     -0.377115     -0.908831
O       2.02732      9.49798      0.47871        -0.353623      0.040835      0.270853
O       1.95500      9.69747     13.59431        -0.035021     -0.440685      0.673628
O      13.53321      9.60486      0.54261        -0.515910     -0.036188      0.050977
O      13.36413      9.65436     13.73793         0.515536     -0.231584     -0.681330
O       1.87109      9.73028      4.81657         0.261836     -0.367890      1.211221
O      13.51083      9.60332      4.85621        -0.182533      0.105066      0.787727
O       1.85362      9.43739      9.27460         0.179644      0.588456     -1.252719
O      13.41679      9.60737      9.24234         0.102157     -0.188811      1.041779
O       5.78023      1.80861      0.58116        -0.029589      0.241806      0.624284
O       5.83399      2.01941     13.56517        -0.192338     -0.008869     -0.002073
O       5.61651     13.53102      0.52184         0.250568     -0.168827      0.500371
O       5.69456     13.33015     13.43548         0.131334      0.039483      0.980453
O       5.69510      1.95592      5.00087        -0.040078      0.030320     -0.448134
O       5.67952     13.39862      5.02425         0.353697      0.267186      0.285581
O       5.79786      2.01903      9.28591        -0.217885     -0.325649     -0.501651
O       5.91040     13.52578      9.19160        -0.682278     -0.450446      0.360509
O       5.90802      5.74586      0.58997        -0.872509     -0.105613      0.974540
O       5.62102      5.73108     13.58318         0.692311      0.129271      0.848418
O       5.88306      5.69650      4.82550        -0.809154     -0.060221      0.479006
O       5.63139      5.99841      9.37665         0.005936     -0.123784     -2.441838
O       5.79742      9.61898      0.57356        -0.073525     -0.217360      0.175212
O       5.61685      9.37851     13.54936         0.271274      0.821354      1.238439
O       5.74169      9.75845      4.88161        -0.186730     -0.381696      1.057315
O       5.67667      9.42134      9.17157         0.222979      0.159828     -1.018368
O       9.50729      1.88133      0.64835         0.228353     -0.563744     -0.190071
O       9.56460      1.94237     13.61714        -0.275584     -0.059147     -0.871734
O       9.65657     13.45673      0.58046        -0.690304      0.002158     -0.031574
O       9.57601     13.29241     13.64867        -0.108484      0.381931      0.682749
O       9.54644      1.94341      5.02143        -0.126950      0.109998     -1.616326
O       9.54113     13.46784      4.94212        -0.002956     -0.320668     -0.486013
O       9.63505      1.75149      9.30366         0.057426      0.548884     -1.377312
O       9.73038     13.38952      9.22115        -0.248039     -0.158278     -0.660088
O       9.55007      5.80403      0.57787         0.214345     -0.018078     -0.588594
O       9.67902      5.86176     13.61204        -0.669636     -0.464459      1.112552
O       9.48485      5.57221      4.92419         0.300491      0.929268      1.406484
O       9.69358      5.93135      9.22952        -0.150256      0.218641     -1.412876
O       9.64069      9.65342      0.52624        -0.064062     -0.377033     -0.810631
O       9.53932      9.52417     13.74391        -0.287145      0.335371     -0.638237
O       9.57972      9.68307      4.85657         0.062195     -0.208461     -0.766398
O       9.72041      9.61519      9.36863        -0.670399     -0.247229     -1.569554
O       3.88276      1.97980      2.78975        -0.931847     -0.458234      0.057656
O       3.87301      1.93750     15.74243        -0.448665     -0.036723      0.149399
O       3.86068     13.53374      2.84880        -0.022810     -0.773104     -0.211131
O       3.77524     13.45210     15.70246         0.875915      0.225908     -0.020813
O      15.30471      1.77307      2.66628         0.811506      0.394667      0.115480
O       0.00720      1.96531     15.87150        -0.473624      0.017558     -0.044438
O       0.15157     13.38772      2.72403        -1.790641     -0.123792      0.070308
O       0.02226     13.39773     15.68247        -0.583483     -0.170815      0.425884
O       3.73679      1.90585      7.12934         1.236052      0.441963     -0.135282
O       3.88249     13.40615      7.18926        -1.107289      0.058047     -0.051599
O      15.33569      1.91646      7.02898        -0.344927      0.179676      0.377519
O      15.31679     13.42341      7.00980         0.543492      0.323351      0.611538
O       3.83696      1.99230     11.41172        -0.302467     -0.342476     -0.173858
O       3.88127     13.60537     11.26729        -0.590596     -0.345957      0.294825
O      15.21319      1.90370     11.18258         1.304204     -0.064373      0.822208
O      15.32535     13.41073     11.30979         0.243356     -0.030858      1.225315
O       3.80962      5.77625      2.70989         0.200424     -0.218669      0.493713
O       3.85076      5.62302     15.78995        -0.055040     -0.028179      0.552963
O       0.01433      5.75313      2.64203        -0.631350      0.002020      0.366318
O      15.32435      5.68578     15.95756        -0.316336      0.495398     -0.083327
O       3.74737      5.70350      6.99667         0.221457     -0.072447      0.015534
O      15.34894      5.74613      7.02183         0.456676      0.056801      0.501684
O       3.78424      5.84638     11.40301        -0.282266     -0.450849      0.075258
O       0.00519      5.68685     11.44696        -0.704092      0.523700      0.179333
O       3.87367      9.40045      2.68700        -0.257425      0.567139      0.130936
O       3.84266      9.65270     15.86232         0.416232     -0.597245     -0.345425
O       0.00857      9.80558      2.52240         0.091623     -0.818516      0.424493
O       0.04888      9.49187     15.81934        -0.336890      0.101261      0.089790
O       3.79848      9.75086      7.13149        -0.133836     -0.416877     -0.507568
O       0.01267      9.60941      7.03128         0.699788      0.113849      0.353642
O       3.86362      9.63404     11.35353        -0.749906     -0.596201     -0.051884
O       0.00135      9.74237     11.41577        -0.197569     -0.808091      0.037623
O       7.66531      1.78162      2.70005        -0.556979      0.401296      0.624195
O       7.63702      1.72752     15.80771        -0.144624      0.110886      0.113390
O       7.61626     13.46464      2.68431         0.425688      0.123796      0.139911
O       7.51611     13.44226     15.70142         1.196383     -0.401667      0.370933
O       7.62878      1.98827      7.15196        -0.360274     -0.007394      0.073672
O       7.65884     13.57984      7.15686         0.547859     -1.103590      0.053270
O       7.65810      1.91400     11.44603         1.156897      0.278582      0.176762
O       7.73755     13.39110     11.24781        -0.047991      0.079129      0.687298
O       7.62932      5.69781      2.71534         0.760706      0.325275      0.097004
O       7.62244      5.85644     15.88024         0.550698      0.055485     -0.583350
O       7.58079      5.85104      7.17565         0.151250      0.133284     -0.130803
O       7.67534      5.77490     11.18140         0.784525      0.377675      0.815383
O       7.68350      9.59463      2.79550        -0.025264     -0.427685     -0.353594
O       7.60295      9.58056     15.81939        -0.459381      0.147384     -0.258537
O       7.68543      9.52608      7.00401        -0.163008      0.078257      0.314682
O       7.53659      9.58561     11.30645         1.850517     -0.138628      0.408169
O      11.42287      1.95952      2.74911         1.897138     -0.351471      0.071158
O      11.35017      1.69099     15.79627         0.978595      0.807029      0.210295
O      11.51057     13.31406      2.56192        -0.074483      0.572919      0.736685
O      11.42935     13.27407     15.88153         0.975166      0.857346     -0.161501
O      11.47918      2.10438      7.03380         0.588538     -0.876238      0.300376
O      11.43491     13.36399      7.10489         0.869541      0.581890     -0.082080
O      11.41872      1.86217     11.51544         0.639667      0.351505      0.146439
O      11.56336     13.33176     11.52695        -1.377945      0.377728     -0.203255
O      11.52287      5.60549      2.78135        -0.244174      0.615641      0.012359
O      11.37663      5.59277     15.85090         0.353057      0.548507      0.271314
O      11.52750      5.85680      7.03340        -0.001156     -0.402871      0.006173
O      11.50962      5.73511     11.45023         0.431042      0.380126     -0.012023
O      11.47059      9.64324      2.68536         1.072344     -0.176155      0.010820
O      11.53975      9.73127     15.77172        -1.058611     -0.291155      0.618353
O      11.53258      9.54091      6.98307        -0.304787      0.038783      0.278939
O      11.43773      9.52972     11.42720         0.930755      0.179547      0.273312
O       1.82167      3.85213      2.68049         0.607525     -0.665149      0.039728
O       1.93619      3.75605     15.93574         0.001505      0.693162      0.220385
O       1.96739     15.27383      2.72429         0.012186      1.281320      0.429958
O       1.76636     15.34778     15.85885         1.064917      0.661975     -0.592937
O      13.49083      3.73311      2.67190        -0.189942      0.477107      0.139216
O      13.36957      3.80204     15.89766        -0.462123     -0.314962      0.318566
O      13.46787     15.35966      2.74151        -0.785500     -1.226095      0.215572
O      13.44999     15.32047     15.73042        -0.283780     -0.365268      0.751068
O       1.95790      3.83020      7.17908        -0.981542      0.941473     -0.678302
O       1.93024      0.05996      7.09844        -0.226575     -1.204485     -0.054531
O      13.43972      3.85709      6.96460         0.130597     -0.367659      1.108080
O      13.40433     15.34780      7.20458        -0.350963      0.242914     -0.679845
O       1.76693      3.82814     11.50226         0.983405      0.364512     -0.838704
O       1.81756      0.05398     11.51633         0.523494      0.227438     -0.326204
O      13.39587      3.78860     11.46170        -0.405289      0.982738      0.083086
O      13.32837     15.34842     11.58595        -0.111747     -0.064563     -0.346546
O       1.82866      7.70124      2.72232         0.122928      0.098604      0.180461
O       2.00144      7.63765     15.77724        -0.104199      0.306781      0.352037
O      13.50051      7.62945      2.74393        -0.599115      0.727275     -0.035030
O      13.18912      7.60152     15.70716         0.390679      0.775684      0.883572
O       1.98637      7.72568      7.02892        -0.470213     -0.311219     -0.569767
O      13.52153      7.70172      7.05870        -0.387619     -0.469118     -0.061894
O       1.81233      7.69273     11.45786         0.153108      0.220142      0.067928
O      13.41418      7.62169     11.38594         0.581536      0.876646      0.406147
O       2.02875     11.44084      2.59095         0.429830      0.713410      0.379983
O       2.01318     11.57004     15.62968        -0.432376     -1.019617      0.501299
O      13.40377     11.52217      2.75718         0.173121      0.029281      0.067705
O      13.52800     11.52587     15.87225        -0.422113     -1.440690      0.344057
O       1.86071     11.58456      7.19061         0.426518     -0.536415     -0.354596
O      13.43992     11.50061      7.03010        -0.024305      0.152555      0.505561
O       2.01016     11.54605     11.35375        -0.112252     -0.230882      0.319395
O      13.35797     11.50111     11.50455         0.399786     -0.659298     -0.065934
O       5.64457      3.77693      2.79953         0.701624      0.454120     -0.476528
O       5.87690      3.78327     15.79838        -0.258510      0.218244      0.121477
O       5.73259     15.35359      2.80485        -0.114751      0.174709      0.129647
O       5.68806     15.29293     15.63091        -0.138512      0.378818      0.272390
O       5.73885      3.89526      7.09124        -0.607315      0.065861      0.040675
O       5.77550      0.07104      7.11771        -0.336289     -0.189340      0.053594
O       5.86567      3.89807     11.36729        -0.604795     -0.314835      0.567837
O       5.78722      0.06786     11.45376         0.014735     -0.941632     -0.119524
O       5.72699      7.56166      2.84994         0.468392      1.191881     -0.171696
O       5.60368      7.61327     15.88785         0.531313      0.915687     -0.575522
O       5.50665      7.63315      6.90868         0.423911      0.930103      0.121029
O       5.77222      7.68729     11.59090        -0.169272     -0.103221     -0.405530
O       5.64065     11.51373      2.67209         0.280438      0.383600      0.104977
O       5.67114     11.52956     15.84158         0.095324     -0.862507     -0.648231
O       5.81870     11.50252      7.11197         0.106883      0.175681      0.588558
O       5.74784     11.48750     11.33180        -0.279523      0.138306     -0.285872
O       9.49559      3.81185      2.69545         0.243486      0.108147     -0.006051
O       9.38270      3.76192     15.77604         0.331940      0.480453     -0.161982
O       9.71214      0.01322      2.82365        -0.442969     -1.858243      0.080305
O       9.50919     15.22428     15.77578         0.180817      1.157358      0.403947
O       9.51565      3.87119      7.19006         0.149444      0.939829      0.323932
O       9.54375      0.03492      7.02776         0.417644     -0.184684      0.561786
O       9.68574      3.89904     11.25506        -0.590318     -0.578518      0.496545
O       9.66565     15.33755     11.46026        -0.333476     -0.697869     -0.240857
O       9.66208      7.63495      2.77320        -0.195633      0.343432     -0.226661
O       9.54491      7.77260     15.78885         0.732457     -1.377420      0.574232
O       9.60400      7.68092      7.01963        -0.128760      0.310154      0.127758
O       9.58087      7.68251     11.63832        -0.524515     -0.029223     -0.783424
O       9.47915     11.52235      2.69603         0.475481     -0.205844      0.081383
O       9.54035     11.53657     15.85873        -0.549598     -0.454061      0.306467
O       9.68722     11.49346      7.08938        -1.356312     -0.610223      0.017264
O       9.55302     11.46851     11.47708         0.101820      0.223991     -0.438799
