  # total energy = -7876.90091094 
CRSYTAL
PRIMVEC
    15.6000000000000000    0.0000000000000000    0.0000000000000000
     0.0000000000000000   15.6000000000000000    0.0000000000000000
     0.0000000000000000    0.0000000000000000    17.640000000000000
PRESSURE
-5.54421 -5.7359 -9.70637 -0.005685 -0.178837 -0.009814
PRIMCOORD
320 1
Pb       3.80415      3.78461      4.38390         0.307235      0.817200      0.333401
Pb       3.88207      3.90493     17.59129         0.038314     -0.140921      0.190549
Pb       3.87963     15.57100      4.32836         0.197349     -0.354706      0.600782
Pb       3.84017     15.55504     17.55034         0.028573      0.271598      0.217936
Pb       0.03019      3.87417      4.39858        -0.310723      0.156089     -0.319603
Pb      15.58904      3.92081     17.62577        -0.046956      0.157885      0.190898
Pb      15.55076     15.55065      4.32629         0.102082      0.032194      0.277474
Pb      15.50728      0.02714     17.55354         0.620210     -0.461809      0.809415
Pb       3.84869      3.92279      8.79109        -0.137862     -0.011270     -0.274408
Pb       3.84062      0.02998      8.73475         0.265194     -0.118720      0.245682
Pb      15.57309      3.90142      8.71280         0.196159      0.077318      0.152040
Pb       0.01075     15.59686      8.76361        -0.530189     -0.312935     -0.109995
Pb       3.90097      3.71866     13.22143        -0.136561      0.755332     -0.021548
Pb       3.83070     15.55026     13.18129         0.336508     -0.164130      0.204529
Pb      15.57529      3.79923     13.17139         0.447683      0.258449      0.288472
Pb      15.58672      0.08099     13.15258        -0.166774     -0.453089      0.169157
Pb       3.88341      7.82309      4.40000        -0.104618     -0.581114      0.011988
Pb       3.94403      7.80651     17.58419        -0.577868     -0.006222      0.421617
Pb       0.00571      7.93494      4.40253         0.182043     -1.217949      0.200101
Pb       0.01821      7.83372     17.55582         0.039294     -0.104472      0.462184
Pb       3.89469      7.86693      8.82507         0.266490     -0.312349     -0.225388
Pb      15.57560      7.79893      8.81769        -0.172733      0.015802     -0.086467
Pb       3.89007      7.79949     13.14069         0.433532     -0.352634      0.200391
Pb       0.03442      7.86153     13.17916        -0.163814     -0.310291      0.187877
Pb       3.89586     11.64629      4.37210         0.040428      0.037718     -0.081325
Pb       3.92037     11.64141     17.57445        -0.231566      0.426690      0.054212
Pb      15.51653     11.55442      4.28613         0.821312      1.219693      1.019800
Pb      15.55985     11.63755     17.52511         0.369294      0.409168      0.713925
Pb       3.84813     11.59941      8.74258         0.131357      0.209741      0.265553
Pb      15.54637     11.72565      8.81229        -0.095685      0.236722     -0.605957
Pb       3.86678     11.72356     13.16982        -0.426419      0.167416      0.217945
Pb      15.53553     11.63386     13.17855         0.239811      0.339790     -0.138876
Pb       7.84320      3.74867      4.44474        -0.240885      0.616882      0.146254
Pb       7.78984      3.84160     17.56551        -0.289284      0.308941      0.492724
Pb       7.73589     15.51374      4.32597         0.011877      0.060153      0.317246
Pb       7.77299     15.57287     17.63236        -0.128861      0.179067     -0.097799
Pb       7.73902      3.89518      8.75249        -0.317662      0.034476     -0.168566
Pb       7.80615     15.58389      8.70769        -0.035985      0.059781      0.646276
Pb       7.94946      3.92606     13.11482        -0.751349      0.058690      0.720661
Pb       7.79010      0.02482     13.22802        -0.029374     -0.490370     -0.076251
Pb       7.88574      7.78235      4.37329        -0.213645     -0.307802     -0.064162
Pb       7.79836      7.87679     17.62043         0.199849     -0.652683      0.390942
Pb       7.76600      7.81048      8.75228        -0.206582     -0.110519      0.274257
Pb       7.78052      7.88591     13.08750        -0.242477     -0.400395      1.604543
Pb       7.83281     11.70308      4.39014        -0.136536      0.044150     -0.184629
Pb       7.78446     11.69387      0.01118        -0.257448      0.206593     -0.070844
Pb       7.82394     11.69441      8.89281        -0.102661     -0.010270     -0.209585
Pb       7.79061     11.73181     13.19001         0.022707     -0.009190      0.495226
Pb      11.65678      3.88192      4.42179         0.008474     -0.024952     -0.245757
Pb      11.82186      3.84859     17.59212        -0.819227      0.040104      0.304406
Pb      11.57277     15.48604      4.40278         0.388130     -0.036793     -0.106823
Pb      11.56036     15.51978     17.60780        -0.091277      0.225819      0.218730
Pb      11.58539      3.89359      8.76802         0.460046      0.051838      0.296775
Pb      11.76593      0.04386      8.72203        -0.152658     -0.621060      0.395972
Pb      11.75829      3.89853     13.20356        -0.187049     -0.015084     -0.241358
Pb      11.68941     15.57721     13.16908        -0.111336     -0.139532      0.318324
Pb      11.74019      7.74226      4.29299        -0.322651     -0.498986      0.743415
Pb      11.72986      7.74474     17.53641        -0.968171      0.095595      0.547488
Pb      11.61254      7.78669      8.70965         0.216905      0.089624      0.663984
Pb      11.73532      7.75237     13.20753        -0.517072     -0.066359      0.173317
Pb      11.70217     11.66779      4.26637        -0.952000      0.034278      1.236262
Pb      11.78066     11.58951     17.48007        -0.550953      0.433622      1.002967
Pb      11.71315     11.61528      8.64054         0.056038      0.913837      1.052119
Pb      11.63615     11.62920     13.05795        -0.018555      0.319181      0.707022
Ti       1.96413      1.96035      2.38322        -0.591128     -0.105484     -1.533205
Ti       1.84561      2.00302     15.62714         0.607309     -0.003305     -1.021925
Ti       1.92247     13.70303      2.34676        -0.300130     -1.242671     -1.469016
Ti       1.91664     13.68216     15.60701         0.741549     -0.806775     -0.925647
Ti      13.64389      1.92907      2.35205         0.051381     -0.100991     -0.237567
Ti      13.56569      1.88183     15.70872        -0.504486      0.217099     -1.568461
Ti      13.64848     13.55535      2.34778         0.139215      0.435176     -0.683223
Ti      13.62982     13.63087     15.56608         0.031129     -0.097547     -0.531107
Ti       1.85584      1.92864      6.80751         0.201460      0.347557     -1.783148
Ti       1.97324     13.67438      6.83505        -0.525698     -0.345343     -1.666309
Ti      13.61221      1.93326      6.75650         0.831190     -0.280781     -1.281416
Ti      13.64809     13.63852      6.68742        -0.046887      0.135550     -0.251893
Ti       1.97550      1.90850     11.11619         0.079021      0.577198     -0.100541
Ti       1.88044     13.64177     11.09286         0.147411     -0.577720      0.144181
Ti      13.60406      1.88931     11.19883        -0.480610      0.215703     -1.295418
Ti      13.61122     13.63271     11.17683        -0.010199      0.112415     -1.022236
Ti       1.89225      5.94251      2.24840        -0.081489     -1.108468     -0.814274
Ti       1.86887      5.87047     15.60471         0.533400     -0.576021     -0.954055
Ti      13.57090      5.76145      2.26448         1.203919      0.016782     -0.581750
Ti      13.56165      5.83147     15.58471         0.082220     -0.264383     -0.508931
Ti       1.88395      5.95641      6.80452         0.711129     -0.617944     -1.130547
Ti      13.60006      5.85089      6.90882         0.211198     -0.175082     -2.669426
Ti       1.96016      5.78800     11.18350         0.352268     -0.381620     -0.741004
Ti      13.70031      5.86202     11.24910        -0.793668     -0.096059     -0.431889
Ti       1.93449      9.76123      2.37547         0.680507      0.258267     -1.548050
Ti       1.88745      9.74479     15.56801         0.603254      0.736015     -0.514251
Ti      13.56127      9.65383      2.46120         0.528701      0.178551     -1.977265
Ti      13.59797      9.71310     15.59354        -0.199128      0.177800     -1.392193
Ti       1.94396      9.74045      6.82024         0.105475      0.179151     -1.183057
Ti      13.63521      9.70666      6.77216        -0.150629      0.162692     -0.150139
Ti       1.92042      9.67029     11.13251         0.429823      0.815340     -0.626527
Ti      13.60352      9.71587     11.19226         0.037102      0.024391     -0.999992
Ti       5.83671      1.95575      2.43487         0.297554     -0.103764     -1.562975
Ti       5.78820      1.97647     15.50826        -0.314131     -0.115261     -0.451917
Ti       5.81838     13.58594      2.38485         0.858119     -0.059589     -1.453777
Ti       5.87915     13.69679     15.64101        -0.751237     -0.310293     -1.357720
Ti       5.80885      1.88438      6.83384        -0.211447      0.158582     -1.214269
Ti       5.86718     13.60585      6.83138        -0.574230      0.105285     -1.068596
Ti       5.91102      1.94650     11.19413        -0.723893     -0.082270     -1.289981
Ti       5.77533     13.66175     11.16903         0.213427      0.252665     -0.857624
Ti       5.80468      5.78248      2.38956        -0.207738     -0.138031     -1.057694
Ti       5.79366      5.85746     15.68597         0.518179     -0.031523     -1.474648
Ti       5.72549      5.82514      6.80096        -0.533567     -0.169548     -1.985135
Ti       5.85729      5.84626     11.13748        -0.629099      0.439829     -0.190309
Ti       5.86234      9.68796      2.40434        -0.258287      0.653504     -0.990907
Ti       5.79674      9.73228     15.62721         0.657411      0.176335     -1.275285
Ti       5.91270      9.76283      6.78706        -1.336238      0.014419     -1.213321
Ti       5.80009      9.77930     11.23041         0.011115     -0.569581     -1.496996
Ti       9.77371      1.95483      2.43639        -0.388404     -0.336849     -1.125062
Ti       9.65687      1.93488     15.56434         0.550338     -0.379208     -1.518971
Ti       9.77134     13.63137      2.30440        -0.615685     -0.276178     -1.080950
Ti       9.75014     13.64556     15.61545        -0.371526     -0.364874     -0.740439
Ti       9.72428      1.96313      6.84745        -0.210921     -0.062549     -1.518457
Ti       9.70789     13.61817      6.82131         1.061712      0.156056     -1.037895
Ti       9.74905      1.86043     11.18138         0.223577      0.065478     -0.710350
Ti       9.69423     13.59709     11.13048         0.626387     -0.021688     -0.773582
Ti       9.67416      5.81679      2.37368        -0.105630     -0.456950     -1.578920
Ti       9.64260      5.79381     15.55308        -0.440162      0.422095      0.175535
Ti       9.63563      5.91546      6.82168         0.187356     -0.604641     -1.559001
Ti       9.66990      5.85834     11.16410         0.905695      0.536553     -0.766449
Ti       9.69062      9.73160      2.40541         0.231357      0.000197     -1.460002
Ti       9.66187      9.74609     15.66053         0.102123     -0.227331     -1.711668
Ti       9.72687      9.77854      6.79333         0.493810      0.094747     -1.995914
Ti       9.71450      9.69097     11.22421        -0.056357     -0.315986     -1.084509
O       1.99610      1.88650      0.50096        -0.230296      0.205808      2.444440
O       1.73582      2.08911     13.73961         0.324058     -0.490341      2.191093
O       1.82959     13.65775      0.48499         0.346572      0.252423      2.304520
O       2.13206     13.61341     13.73678        -0.694589      0.145108      2.303892
O      13.59316      2.11061      0.52283        -0.061546     -0.616024      1.863805
O      13.53162      1.80824     13.84719         0.249165      0.235169      1.905559
O      13.67532     13.33082      0.54073        -0.089741      0.765760      1.971008
O      13.62940     13.66457     13.76332        -0.047461     -0.200039      1.820164
O       1.78877      1.88170      4.96506         0.393591      0.041043      1.524424
O       1.93219     13.64829      5.01587         0.267592     -0.010012      1.649385
O      13.79019      1.90068      4.90308        -0.631544      0.214262      2.226589
O      13.63367     13.73874      4.86986        -0.130412     -0.364986      1.919929
O       1.96434      1.91129      9.31019        -0.192303     -0.038151      1.293622
O       1.85779     13.74671      9.27077        -0.033036     -0.213769      2.124136
O      13.45944      1.92279      9.36255         0.439801     -0.056584      1.954364
O      13.72688     13.67482      9.35872        -0.184044     -0.196662      1.832369
O       1.88853      5.88437      0.36968        -0.128244      0.031045      2.347697
O       1.93877      5.67870     13.75493        -0.081967      0.701978      2.281572
O      13.56947      5.70030      0.40200         0.006839      0.173647      1.959159
O      13.44506      5.93367     13.76170         0.618873     -0.565415      2.139720
O       1.92643      6.08161      4.98287        -0.196766     -0.468406      1.739379
O      13.69868      5.83616      5.05927        -0.438587     -0.143159      2.076089
O       1.94964      5.83681      9.34431        -0.292350      0.061543      2.028829
O      13.68652      5.95585      9.44689         0.094762     -0.343443      1.073538
O       1.88758      9.69821      0.51744        -0.006528      0.084798      2.068458
O       1.87979      9.80693     13.72963        -0.110780     -0.202486      1.859932
O      13.66021      9.82036      0.62445        -0.297389     -0.379343      1.905141
O      13.57725      9.72298     13.75144         0.335999      0.035034      2.069581
O       1.86418      9.61622      4.96631         0.350823      0.207184      1.711101
O      13.49892      9.68671      4.98068         0.724191     -0.206586      0.859332
O       2.03398      9.50642      9.28948        -0.554220      0.902929      2.273536
O      13.62556      9.62797      9.37190         0.022933      0.157726      1.615874
O       5.80469      2.00287      0.59132         0.074347     -0.116276      2.167918
O       5.69714      2.00332     13.66280         0.476170     -0.210859      1.881363
O       5.99442     13.52700      0.52399        -0.524752      0.375178      2.181381
O       5.85034     13.72075     13.77587        -0.135129     -0.085463      1.548228
O       5.82439      1.73214      5.00848        -0.016138      0.573069      1.703343
O       5.90019     13.66077      4.97794        -0.126694     -0.133323      1.863215
O       5.89354      1.96742      9.30860         0.039747     -0.038315      2.464255
O       5.85986     13.62615      9.32587        -0.048847     -0.031950      2.433341
O       5.87023      5.67427      0.53918        -0.263325      0.463072      2.392712
O       5.79833      5.90194     13.87440        -0.156612     -0.028269      1.747566
O       5.58072      5.67866      4.96717         0.397882      0.716977      1.845881
O       5.84074      5.97551      9.33192         0.237711     -0.559134      1.496795
O       5.90536      9.81720      0.57224        -0.295242     -0.111338      1.849973
O       5.91571      9.59671     13.80707        -0.557593      0.549721      1.808340
O       5.82469      9.92683      4.94977         0.206801     -0.721357      2.090807
O       5.86848      9.73530      9.34312        -0.128921      0.141729      2.057234
O       9.65102      1.83041      0.61034         0.151438      0.325768      1.987884
O       9.79102      1.89155     13.67098        -0.557839      0.188240      2.316871
O       9.73185     13.68886      0.43639        -0.180575      0.138999      2.205303
O       9.75006     13.58289     13.78182        -0.173250      0.290083      1.823879
O       9.82194      2.15029      4.99022        -0.073905     -0.691429      2.164599
O       9.84568     13.63130      4.99994        -0.452482     -0.121081      1.744255
O       9.73384      1.83636      9.33027         0.042395      0.511836      1.603094
O       9.70171     13.41908      9.29198        -0.299215      0.716417      2.024445
O       9.58718      5.67593      0.55464         0.406904      0.414973      1.866911
O       9.54666      5.76754     13.75249         0.587344     -0.029085      1.775123
O       9.73298      5.85461      4.97347        -0.014626      0.055649      1.942015
O       9.56016      5.95858      9.32122         0.275530     -0.220971      1.607970
O       9.71640      9.66026      0.57027        -0.080499      0.337938      1.887043
O       9.67304      9.75493     13.79903         0.151676      0.270552      1.949457
O       9.83521      9.84984      4.91625        -0.548635     -0.470319      2.390288
O       9.65792      9.63019      9.36103         0.053496      0.247255      2.085158
O       3.93295      1.88303      2.93674        -0.444646     -0.022775     -0.849557
O       3.79257      2.09205     15.97328         0.281308     -0.334519     -0.619291
O       3.97683     13.63457      2.72928        -0.789608      0.121591     -0.170259
O       3.89755     13.60721     16.22140        -0.348014      0.186394     -0.951675
O       0.06103      1.85447      2.75641        -0.533721      0.226432     -0.532751
O      15.43311      1.94067     16.21952         0.982915     -0.168499     -1.177097
O       0.04254     13.52671      2.87025        -0.639180     -0.066229     -0.834260
O      15.56746     13.56703     16.00692        -0.037681      0.562903     -0.702143
O       3.79639      1.83624      7.18472         0.538071      0.189811     -0.248545
O       3.86697     13.80784      7.19583         0.321185     -0.377152     -0.156079
O      15.51702      1.94867      7.21816        -0.204887     -0.015906      0.066200
O      15.56677     13.62066      7.24666        -0.694964     -0.165751     -0.429671
O       3.83742      1.91961     11.69347         0.129163      0.071933     -1.023612
O       3.88715     13.61739     11.60763        -0.055720      0.113765     -0.681622
O      15.48836      1.87159     11.61574         0.776331      0.307251     -0.543206
O      15.54515     13.57655     11.69932         0.892195      0.355557     -0.811333
O       3.80615      5.78085      2.71592         0.648828      0.158010     -0.362620
O       3.84428      5.82878     16.14491         0.014761      0.290627     -0.829061
O      15.52782      5.71798      2.60472         0.419921      0.262152     -0.049359
O      15.57905      5.85147     15.99323        -0.849493      0.008588     -0.550041
O       3.81798      5.78535      7.34241        -0.056303      0.195119     -0.559476
O      15.58802      5.88489      7.27063        -0.026758      0.076053     -0.093269
O       3.90004      5.90175     11.56243        -0.062664      0.105916     -0.278384
O       0.01903      5.74345     11.69300        -0.202097      0.679459     -0.549008
O       3.86875      9.65560      2.85358         0.198947      0.167706     -0.488614
O       3.83464      9.70983     16.05186         0.278034      0.230049     -0.571860
O       0.07145      9.74376      2.91109        -1.214123     -0.308289     -0.903857
O      15.54587      9.73065     16.07117        -0.084586     -0.199714     -0.984304
O       3.88264      9.79957      7.22394        -0.033115     -0.022329     -0.388532
O      15.57279      9.78117      7.23568        -0.192624     -0.420600     -0.419403
O       3.89676      9.75616     11.64039        -0.579396     -0.407369     -0.519932
O      15.58789      9.81970     11.60624         0.076715     -0.776734     -0.419438
O       7.83837      1.98066      2.93390        -0.250334     -0.530091     -0.625009
O       7.68461      1.84797     15.91115         0.364501      0.019375     -0.280891
O       7.84605     13.53977      2.85395         0.011856      0.280919     -0.505529
O       7.71106     13.76434     16.06152         0.963268     -0.024434     -0.532360
O       7.79358      1.94956      7.14715         0.139270      0.337083      0.059135
O       7.75767     13.56568      7.22463         0.413092     -0.054335     -0.274322
O       7.77195      1.85578     11.69479        -0.137621      0.354045     -0.865552
O       7.82848     13.60441     11.68572        -0.624580      0.337832     -0.897849
O       7.84417      5.75145      2.84141        -1.148701      0.624243     -0.035882
O       7.73409      5.96372     16.10247         0.727110     -0.402177     -0.689174
O       7.67380      5.92835      7.10603         0.481903     -0.412719      0.054489
O       7.79715      5.98388     11.63273        -0.786394     -0.876648     -0.781887
O       7.80107      9.73858      2.87979        -0.293084      0.149834     -0.449550
O       7.75051      9.61154     16.12378         0.220235      1.091967     -0.746410
O       7.79156      9.79769      7.18863        -0.319602     -0.166572     -0.392887
O       7.85034      9.75489     11.70659        -0.568783      0.306924     -1.066633
O      11.71297      1.95471      2.85086         0.045896     -0.147121     -0.458957
O      11.55556      1.90735     16.14888         0.677590      0.046652     -0.668555
O      11.62738     13.59899      2.75727         0.961717      0.123077     -0.322513
O      11.64305     13.66509     16.02505         0.614546     -0.263223     -0.463135
O      11.69153      1.84902      7.19225        -0.395225      0.903756     -0.345551
O      11.66568     13.65238      7.19346         0.263469     -0.224296     -0.309001
O      11.65629      1.83549     11.67301         0.057697      0.931450     -0.673070
O      11.69849     13.67193     11.56416        -0.387844     -0.470053     -0.310452
O      11.66762      5.91530      2.65399         0.153368     -0.659787      0.147210
O      11.64207      5.74676     16.01410        -0.193228      0.319492     -0.555594
O      11.61859      5.89608      7.28643         0.283147     -0.459813     -0.353094
O      11.67691      5.88987     11.60170        -0.271619     -0.508036     -0.285016
O      11.74443      9.58763      2.86930        -0.571389      0.775098     -0.847573
O      11.61114      9.72737     16.10644         1.079070      0.230625     -0.748241
O      11.64186      9.81456      7.27096         0.339879     -1.394457     -0.793092
O      11.68005      9.64865     11.69952        -0.233362      0.425750     -0.871862
O       1.95841      3.82603      2.85771        -0.112409     -0.059600     -0.702502
O       1.81438      3.82944     16.09487        -0.016275      0.806262     -0.554810
O       1.93612     15.49097      2.86731         0.288162      0.816255     -0.695465
O       1.96997      0.01596     16.00489        -0.526031     -0.053003     -0.467885
O      13.66950      3.82440      2.87811        -0.402883      0.384699     -0.742436
O      13.53986      3.82294     16.01632         0.366602      0.763118     -0.793077
O      13.67346     15.49210      2.68820        -0.156398      0.372697     -0.507879
O      13.63865     15.53315     16.17030        -0.475097     -0.087816     -0.787741
O       1.85094      3.89393      7.09450         0.066652     -0.104221      0.201364
O       1.77829     15.59717      7.24075         0.424316      0.115066     -0.287508
O      13.63810      3.89632      7.31630        -0.484893     -0.119124     -0.504108
O      13.58384     15.57723      7.20212         0.417636      0.057208     -0.515909
O       1.99321      3.86570     11.53253        -0.439331     -0.152169     -0.365750
O       1.97541      0.01755     11.67919        -0.630452     -0.542549     -0.956505
O      13.63607      3.88014     11.76621        -0.447646     -0.270170     -0.909954
O      13.60161     15.56084     11.67240         0.283532      0.145030     -0.616694
O       1.89300      7.71735      2.76585        -0.149232      0.695469     -0.381313
O       1.86153      7.83400     16.05547         0.250701     -0.331431     -1.003716
O      13.62516      7.70531      2.80702         0.523810      0.428377     -0.560018
O      13.53441      7.82266     16.11207         0.536156     -0.583163     -0.985099
O       2.04861      7.85237      7.27708        -0.736614     -0.539423     -0.608938
O      13.63806      7.75547      7.23631        -0.159804      0.840274     -0.200597
O       1.88553      7.81882     11.72485         0.012355     -0.210501     -0.909493
O      13.61026      7.76294     11.78392         0.838396      0.331412     -0.968633
O       2.02862     11.64369      2.79699        -0.214948      0.056309     -0.322395
O       1.96186     11.72562     16.01656        -0.202638     -0.662485     -0.464640
O      13.55684     11.64885      2.98473         0.803121     -0.289046     -1.375586
O      13.65965     11.63425     16.04159        -0.439713      0.146047     -0.934604
O       1.95008     11.69156      7.27948        -0.088818      0.000125     -0.243942
O      13.56928     11.64165      7.15856         0.487029      0.441153     -0.318134
O       1.97662     11.68159     11.44931        -0.245283      0.319703     -0.212924
O      13.62995     11.61669     11.56579        -0.248258      0.413496     -0.152681
O       5.85808      3.86674      2.91575        -0.285380     -0.097898     -0.558286
O       5.86773      3.92683     16.07972        -0.247438     -0.423721     -0.796589
O       5.94898     15.57710      2.81843        -0.255487     -0.185126     -0.556148
O       5.67630      0.06345     16.00395         0.211695      0.149048     -0.315554
O       5.72718      3.86620      7.27024         0.469226     -0.137684     -0.270412
O       5.93264      0.01473      7.36229        -0.517526     -0.323257     -0.847448
O       5.79901      3.92396     11.58154         0.449821     -0.098766     -0.601544
O       5.74390     15.59617     11.59321         0.528765     -0.266994     -0.441146
O       5.84323      7.77784      2.78109         0.216207     -0.444582     -0.143749
O       5.83074      7.89826     16.24702        -0.481227     -0.962605     -0.964693
O       5.63968      7.79462      7.11143         0.789729      0.631016     -0.346851
O       5.82837      7.85824     11.70193        -0.065329     -0.426841     -0.870224
O       5.81190     11.65272      2.89219         0.173379      0.210760     -0.623544
O       5.90156     11.76562     15.99448        -0.268760     -1.209313     -0.200643
O       5.70771     11.73289      7.30929         0.630224     -0.178484     -0.767994
O       5.75994     11.61580     11.72515         0.750556      1.019724     -0.755613
O       9.68858      3.86921      2.93537         0.866073      0.198874     -0.797465
O       9.55421      3.81697     15.94598         0.337975      0.644915     -0.539761
O       9.78876     15.52284      2.88856        -0.368676      0.554542     -0.688113
O       9.73624      0.02020     16.09457        -0.355041     -0.370139     -0.651932
O       9.70619      3.93982      7.35947        -0.020194     -0.433036     -0.744498
O       9.68723     15.57888      7.20193         0.036364     -0.021188     -0.473535
O       9.63045      3.93218     11.57670         0.565369     -0.426713     -0.737680
O       9.76834      0.00795     11.59600        -0.561857     -0.721242     -0.477094
O       9.67295      7.85375      2.88411         0.190658     -0.977676     -0.459557
O       9.79085      7.85455     16.09628        -0.224837     -1.266514     -0.607042
O       9.68060      7.78914      7.21410         0.021831      0.598234     -0.514295
O       9.72759      7.75653     11.73419         0.208097      0.687736     -1.046054
O       9.79582     11.66135      2.76170        -0.082888     -0.032969     -0.399047
O       9.64696     11.71877     16.10153         0.041618     -0.042150     -0.694831
O       9.77825     11.62078      7.30473        -0.683461      0.532666     -0.712935
O       9.70595     11.70595     11.67272         0.356431     -0.370788     -0.808199
