  # total energy = -7882.26770707 
CRSYTAL
PRIMVEC
    15.3600000000000000    0.0000000000000000    0.0000000000000000
     0.0000000000000000   15.3600000000000000    0.0000000000000000
     0.0000000000000000    0.0000000000000000    17.440000000000000
PRESSURE
0.437301 0.247249 -4.23622 0.161158 0.269215 0.046512
PRIMCOORD
320 1
Pb       3.74299      3.84643      4.25732         0.028682      0.303639      0.226692
Pb       3.79336      3.85199     17.34249        -0.058245     -0.202689      0.418357
Pb       3.82182      0.02078      4.23352        -0.069633      0.203549      0.623280
Pb       3.84071      0.07908      0.05155        -0.162379      0.159338     -0.442858
Pb      15.27625      3.82583      4.33531        -0.084429     -0.258530     -0.146419
Pb      15.29438      3.85909     17.41814        -0.178407     -0.163402     -0.608691
Pb      15.23624     15.26220      4.28965         0.458534      0.610630      0.619311
Pb      15.29984     15.29909      0.03553         0.421669      0.594901     -0.381070
Pb       3.82895      3.79061      8.72732         0.209019      0.210792     -0.712645
Pb       3.82848     15.29282      8.77227         0.102859      0.230518     -0.759672
Pb       0.05802      3.68717      8.68122         0.113008      0.567820      0.321496
Pb       0.04731      0.01613      8.64429         0.215925     -0.384186     -0.352778
Pb       3.68397      3.88441     13.05427         0.336050     -0.292250     -0.127222
Pb       3.83028     15.24633     13.17974         0.009580      0.399296     -0.495852
Pb      15.28050      3.82107     13.03568         0.192374     -0.093871     -0.237268
Pb       0.02120      0.03913     13.01186         0.051190     -0.022561     -0.093825
Pb       3.82161      7.62923      4.27494         0.027185     -0.028694     -0.287593
Pb       3.77418      7.70144     17.40909         0.435113      0.284057      0.212164
Pb      15.30168      7.59182      4.37446         0.252135     -0.032615     -0.126142
Pb      15.31315      7.72360     17.35219        -0.248242     -0.542538      0.053121
Pb       3.92542      7.56942      8.77970        -0.425404      0.122905     -0.575817
Pb       0.03678      7.62880      8.75384        -0.285654     -0.006255     -0.434362
Pb       3.77732      7.72846     13.03904        -0.177657     -0.105575      0.215787
Pb       0.04759      7.67577     12.96208         0.014297      0.114946      0.421026
Pb       3.75920     11.48229      4.26532         0.224177     -0.329327      0.064138
Pb       3.87203     11.45093     17.43979        -0.016775     -0.297988     -0.139804
Pb      15.32371     11.52159      4.29526         0.002317     -0.117043      0.392185
Pb      15.35972     11.47661     17.42218        -0.309846      0.079862     -0.326473
Pb       3.73240     11.53379      8.66700         0.244245     -0.220453      0.116898
Pb      15.35228     11.42723      8.64409        -0.450839      0.568658      0.047179
Pb       3.78202     11.54742     13.07619        -0.156082      0.079453      0.175190
Pb      15.25204     11.46194     13.15262        -0.024258      0.132752     -0.745204
Pb       7.65053      3.82383      4.40832         0.277874      0.121630     -0.178179
Pb       7.63819      3.89137     17.30207         0.969223     -0.122217      0.242494
Pb       7.67383      0.08810      4.21525        -0.044968     -0.195186      0.092588
Pb       7.74187     15.34840     17.43953         0.003332     -0.056558     -0.559555
Pb       7.70992      3.66634      8.77030        -0.151173      0.231192     -0.501889
Pb       7.62830     15.23954      8.64127        -0.014890      0.240052      0.073299
Pb       7.60011      3.75710     13.17905         0.199515     -0.064227     -0.711443
Pb       7.60055     15.25234     13.16570         0.605615      0.183352     -0.264250
Pb       7.58435      7.68204      4.31681         0.478681     -0.318378      0.061004
Pb       7.78132      7.58545     17.40790        -0.276621      0.068983      0.057089
Pb       7.53715      7.69251      8.68454         0.245454     -0.176337     -0.128488
Pb       7.56329      7.61182     12.99674         0.387901      0.223969      0.055874
Pb       7.67600     11.51722      4.33230         0.192471      0.364337     -0.567345
Pb       7.74461     11.48971      0.05381         0.171199      0.061473     -0.036857
Pb       7.59839     11.40131      8.70551        -0.044868      0.616895     -0.189423
Pb       7.60785     11.40598     13.10934         0.140093      0.259254     -0.066712
Pb      11.46086      3.83298      4.40728         0.511422      0.224857     -0.580175
Pb      11.48082      3.81840     17.33036         0.196003      0.184371      0.030533
Pb      11.37622      0.07021      4.28055         0.695980     -0.376364     -0.270966
Pb      11.64100     15.35374     17.34426        -0.116666      0.318827      0.242182
Pb      11.52948      3.79512      8.74655        -0.083369      0.276621     -0.094098
Pb      11.48463     15.20791      8.63537         0.395780      0.121582      0.346084
Pb      11.49785      3.85791     13.06557        -0.110166     -0.191663     -0.558723
Pb      11.53192     15.31666     12.98094        -0.167540     -0.078068     -0.223304
Pb      11.44187      7.77705      4.33630        -0.158368     -0.496728     -0.381525
Pb      11.53690      7.58844     17.40698         0.083852      0.221493     -0.247769
Pb      11.41486      7.58777      8.72962         0.428199      0.069369     -0.064530
Pb      11.57872      7.73879     12.86834        -0.521628      0.057619      0.402333
Pb      11.46292     11.49532      4.45629         0.067511      0.368406     -0.580393
Pb      11.59390     11.53818      0.02114        -0.125868     -0.545193     -0.359517
Pb      11.46019     11.53166      8.75354         0.464844      0.002468     -0.490026
Pb      11.41241     11.46069     12.99897         0.860727      0.098419     -0.001921
Ti       1.94179      1.95829      2.29968        -0.803644      0.101519     -1.319588
Ti       1.96362      1.91607     15.40797        -1.260860     -0.811485     -0.098264
Ti       1.99619     13.45106      2.31651        -1.150470      0.226656      0.860602
Ti       1.93316     13.41616     15.44383        -0.483213      0.891046     -1.079391
Ti      13.46418      1.89479      2.33219        -0.007578      0.402981     -0.436637
Ti      13.50932      1.90537     15.34020         0.181457      0.996008      0.095953
Ti      13.53216     13.39792      2.28907        -1.454168      0.385808     -0.058905
Ti      13.48701     13.44938     15.38341         0.128699     -0.630826     -1.797937
Ti       1.98824      1.94299      6.60136         0.036081     -0.705498      0.223806
Ti       2.02901     13.44479      6.63577        -0.869478      0.812134     -0.844745
Ti      13.45260      2.01682      6.68521         0.209627     -1.285690     -2.042055
Ti      13.48142     13.53028      6.68822         0.269828     -1.262268     -1.323236
Ti       2.01571      1.93189     11.03773        -0.718280      0.157525     -0.011794
Ti       1.95394     13.49030     11.07544        -0.679138     -0.623925     -0.833048
Ti      13.47613      1.91263     10.96164        -0.063882      0.473869      1.473851
Ti      13.50705     13.52049     11.03252        -0.393725     -1.065367     -0.637939
Ti       1.81866      5.80004      2.28588         1.463625     -0.456008      0.266629
Ti       1.93459      5.74996     15.40878        -1.510196     -0.411928     -1.715808
Ti      13.46460      5.76246      2.23465        -1.215598     -1.540372     -0.929020
Ti      13.41937      5.83321     15.30123         0.204742     -1.444470      0.517561
Ti       1.87374      5.71534      6.68961         1.116434      0.225157     -1.308882
Ti      13.47259      5.73568      6.77116        -0.540855      0.130877     -1.343733
Ti       1.91675      5.77960     11.01932         0.045390     -0.410425      0.293014
Ti      13.47193      5.80119     11.03814        -0.589985     -0.187749     -1.992326
Ti       1.82740      9.59702      2.34230         0.794042     -0.458339      0.074480
Ti       1.85119      9.58007     15.44625         0.856867     -0.456481     -2.436153
Ti      13.36655      9.56654      2.34045         0.345215      0.080045     -2.050290
Ti      13.40591      9.58546     15.38210        -0.425045      0.379872     -0.784679
Ti       1.82835      9.58124      6.63978         1.231603     -0.310008     -0.907563
Ti      13.38178      9.59017      6.66158        -0.312340      0.713033      0.125063
Ti       1.88420      9.63155     11.02173        -0.877670      1.081925     -0.727444
Ti      13.45600      9.65428     10.98013        -0.622152      0.258221     -0.329314
Ti       5.76617      1.99518      2.30597        -0.371838     -0.350206     -0.864755
Ti       5.72927      1.96546     15.46095         0.404612     -0.499010     -0.238571
Ti       5.74040     13.50349      2.22977         1.603751     -0.435410      0.200066
Ti       5.76386     13.40899     15.56964         0.733717      0.210831     -0.435876
Ti       5.79534      1.92075      6.67859        -0.163578     -0.516632     -0.475905
Ti       5.80950     13.40942      6.58089        -0.083277      0.932976      0.471794
Ti       5.78560      1.85217     11.03250        -0.447442      0.195450     -0.461162
Ti       5.79850     13.42489     11.06102        -0.033428      0.076575     -1.163244
Ti       5.86536      5.72695      2.31070        -0.652454      0.403409     -0.704379
Ti       5.73420      5.81594     15.37770         0.603825     -0.228621     -1.011675
Ti       5.81284      5.75425      6.68894        -0.928931     -0.636722     -0.197552
Ti       5.68254      5.70147     11.08631         0.253871     -0.205985     -1.258054
Ti       5.78458      9.60723      2.36623        -0.848289     -0.432240     -1.153171
Ti       5.81943      9.55988     15.39592        -0.585431      0.005573     -0.563384
Ti       5.66610      9.64035      6.66433        -0.581447     -0.246489     -1.021329
Ti       5.61067      9.66048     11.09339         0.941343     -0.323090     -1.387315
Ti       9.60719      1.97295      2.24269         0.032990      0.234037     -0.348028
Ti       9.69821      1.76255     15.35790        -0.367874      0.986414     -1.149611
Ti       9.64240     13.44802      2.22258        -0.035186     -0.472678      0.113488
Ti       9.68295     13.30165     15.40630        -1.009425      0.638211     -0.618099
Ti       9.63869      1.87020      6.70104        -0.380857      0.471113     -0.601063
Ti       9.61172     13.42022      6.60179         0.264724     -0.535421      0.225806
Ti       9.62909      1.86154     11.00330         0.436518      0.249340      1.015251
Ti       9.54654     13.37810     11.00272         1.382121      1.093279     -0.888122
Ti       9.66864      5.75495      2.31466        -0.432686      0.184348      0.085151
Ti       9.58705      5.79971     15.24213         0.122700     -1.052004     -0.205982
Ti       9.58218      5.76434      6.65347         0.447007     -0.895979     -0.398617
Ti       9.53377      5.78712     11.10454         1.156698     -0.273811     -0.423714
Ti       9.56177      9.62505      2.25709         0.177885     -0.570086      0.073561
Ti       9.60718      9.52745     15.37178         0.639018      0.655152     -0.688937
Ti       9.53075      9.59688      6.62783         0.784221      0.513189     -1.371741
Ti       9.48220      9.65326     11.00754         0.760538     -0.933730      1.204890
O       2.08602      1.97486      0.42825        -0.176468     -0.292978      1.727342
O       1.84051      1.79960     13.62488         0.478001      0.413953     -0.243559
O       1.98878     13.47930      0.59424        -0.130179     -0.271691     -1.082724
O       1.82933     13.51944     13.60938         0.575800     -0.362430      1.088941
O      13.38133      1.81988      0.51929         0.366843     -0.133808      0.688421
O      13.46658      1.92193     13.53038         0.089212      0.191850      1.174723
O      13.59271     13.48911      0.47252        -0.371760     -0.292311      0.492027
O      13.50211     13.44732     13.55804         0.293569      0.086068      0.997161
O       1.96128      1.95119      4.86136         0.049754      0.044330     -0.768545
O       2.06365     13.49702      4.83924         0.019991     -0.419493      0.482876
O      13.51230      2.01204      4.77384        -0.420669     -0.129872      2.201024
O      13.48050     13.41380      4.84514        -0.039401      0.017907      0.971493
O       2.06025      1.95272      9.25590        -0.248985     -0.200153      0.255615
O       2.02135     13.62234      9.27103         0.161523     -0.419110      0.038517
O      13.48032      1.97638      9.24435         0.001529     -0.140429     -1.475042
O      13.46058     13.51030      9.23197        -0.010975      0.036132     -0.206729
O       1.90780      5.80764      0.50836         0.014590     -0.055817     -0.120457
O       1.87650      5.82607     13.54648         0.179968     -0.321230      1.294350
O      13.43485      5.72544      0.36681         0.014723      0.480537      2.074625
O      13.52142      5.79540     13.51109        -0.041198     -0.063603      0.024430
O       1.76169      5.71351      4.83252         0.505625      0.241956      1.265058
O      13.39885      5.54514      4.90389         0.476111      0.655490      1.522799
O       1.88372      5.65315      9.28420         0.454971      0.498039     -0.977293
O      13.49810      5.81425      9.16406        -0.133051      0.062785      0.986588
O       1.98170      9.49468      0.56615        -0.458320      0.110837     -1.010641
O       1.87097      9.63830     13.57213         0.002962     -0.113620      1.438638
O      13.40899      9.42230      0.40710         0.141808      0.603641      2.239368
O      13.37984      9.69047     13.56954         0.283081     -0.446533      0.737364
O       1.87398      9.68856      4.79192         0.034214     -0.415569      1.249998
O      13.29487      9.74652      4.82551         0.196631     -0.659693      0.531217
O       1.91699      9.62655      9.20754        -0.161696      0.180901      0.913292
O      13.51866      9.67602      9.19822         0.021192     -0.235642     -0.085051
O       5.66005      1.98259      0.50517         0.143792     -0.007131      0.065090
O       5.70611      2.05222     13.70458         0.226855     -0.239756     -0.358544
O       5.76620     13.51154      0.44116        -0.257980     -0.160406      0.204086
O       5.82735     13.39335     13.77513        -0.051882      0.015347      0.252483
O       5.92393      1.92785      4.89218        -0.369313     -0.042626      0.105077
O       5.75863     13.41275      4.82120         0.206840      0.018889      0.033314
O       5.95397      1.84490      9.23193        -0.627658      0.165740      0.525394
O       5.81175     13.44047      9.27969        -0.125209      0.100895      0.102575
O       5.88325      5.76513      0.48138        -0.171459      0.003450      1.082389
O       5.74285      5.81025     13.52105         0.050569     -0.157346      1.020936
O       5.84913      5.81333      4.90209        -0.277916     -0.226780      0.704144
O       5.63455      5.78233      9.21399         0.513362      0.049826      1.428984
O       5.72656      9.51499      0.57145         0.042632      0.073705      0.357065
O       5.75189      9.64871     13.55430         0.043301     -0.081044      0.927369
O       5.64463      9.56468      4.82603         0.073080      0.248220      1.135546
O       5.63310      9.60392      9.24337         0.513150      0.349080      0.992787
O       9.55524      2.00308      0.45558         0.302689     -0.496042      0.939696
O       9.75932      1.76771     13.52559        -0.327198      0.451884      1.157682
O       9.55544     13.36878      0.43744         0.631546      0.303456      0.247565
O       9.51907     13.36852     13.60236         0.099119     -0.193061      0.910405
O       9.52157      1.78335      4.89363         0.413951      0.130322      0.177521
O       9.50996     13.25422      4.81003         0.256169      0.579949      0.432598
O       9.65756      2.07220      9.22003        -0.286649     -0.531536      0.559974
O       9.73314     13.40800      9.16866        -0.455845     -0.226927      1.262184
O       9.56938      5.71173      0.54647        -0.038423      0.437600     -0.099511
O       9.46808      5.84270     13.44104         0.277430     -0.241673      0.673337
O       9.53820      5.61139      4.88997         0.553749      0.720623      0.370695
O       9.66282      5.74428      9.30177        -0.513532      0.115751      0.304220
O       9.51970      9.63136      0.46222         0.287861     -0.452323      0.509500
O       9.64980      9.62218     13.55348        -0.317363      0.136857      1.210958
O       9.58232      9.73450      4.69201         0.353732     -0.452149      2.546875
O       9.40236      9.69445      9.26092         0.238078     -0.190979     -0.795338
O       3.83277      1.90033      2.71721        -0.017384      0.197235      0.080184
O       3.81787      1.98254     15.71903         0.969942     -0.105886      0.408596
O       3.87363     13.51143      2.63396        -0.221024     -0.247703      0.086792
O       3.82524     13.30317     15.79439         0.302663      0.202197      0.065380
O       0.01916      1.99904      2.67900        -0.094883     -0.383231     -0.358235
O       0.09581      1.92179     15.81401        -1.739816     -0.225073      0.038085
O       0.04670     13.36296      2.69210        -0.491020      0.021535     -0.015403
O       0.00466     13.37450     15.81770         1.152527     -0.064551      0.325696
O       3.90392      1.94782      6.97985        -0.188960     -0.046229      0.295306
O       3.96970     13.51265      7.05553        -1.497792     -0.512639      0.090946
O       0.03412      1.95393      7.08031        -0.345612     -0.114917     -0.047699
O       0.06701     13.52450      6.94489        -0.257303      0.110072      0.441168
O       3.87595      1.87742     11.47449        -0.407236      0.354888      0.080878
O       3.92105     13.32298     11.50255        -1.570039      0.594988      0.213148
O       0.00322      1.98875     11.43356         0.225863     -0.147137     -0.218443
O       0.02949     13.50538     11.30388        -0.165044      0.410837      0.502959
O       3.89220      5.67968      2.74274        -0.649733      0.570538     -0.297328
O       3.86132      5.72176     15.61318        -0.476324      0.174007      0.534708
O      15.35348      5.69460      2.67426        -0.682416      0.013799     -0.111368
O      15.30052      5.66897     15.77194         0.692752      0.198021     -0.086341
O       3.85335      5.68904      7.10872        -0.152084      0.314096     -0.220296
O       0.06847      5.74602      7.10635        -1.006844     -0.185289      0.102558
O       3.77095      5.73595     11.48685         1.031068      0.185777      0.007311
O       0.08144      5.88973     11.31625        -1.697029      0.038649      0.539000
O       3.75716      9.51512      2.59687         0.838533      0.378642      0.727363
O       3.85610      9.38082     15.66762         0.141182      0.487455      0.586518
O      15.28600      9.62507      2.70120        -0.523197      0.062287      0.047455
O      15.34570      9.62982     15.71716         0.289292     -0.544662      0.520961
O       3.82583      9.73238      7.14446        -0.234114     -0.408597     -0.707458
O       0.04402      9.60732      7.05163        -0.987476     -0.087040     -0.145277
O       3.74866      9.82002     11.45539         0.377825     -0.466152     -0.008121
O      15.31357      9.54904     11.45300         0.481514     -0.129429     -0.144235
O       7.60074      1.99470      2.68203         1.903886     -0.397209     -0.065948
O       7.82399      1.81391     15.65022        -1.087038      0.348329      0.323430
O       7.70645     13.40031      2.55409        -0.536329      0.182490      0.270045
O       7.74818     13.43466     15.89837        -0.700101      0.201147     -0.225202
O       7.77312      1.83161      7.01686        -0.496536      0.292741      0.741818
O       7.76621     13.48784      7.10738        -0.814632     -0.707267     -0.532023
O       7.56239      1.90371     11.42728         1.921628      0.097119      0.518992
O       7.71565     13.42057     11.35018        -0.581814     -0.307854      0.464553
O       7.73733      5.82768      2.79137        -0.670748     -0.337237     -0.352831
O       7.69103      5.75913     15.70580        -0.052358     -0.142592     -0.004071
O       7.72473      5.83310      6.98873        -0.807768      0.009878      0.719239
O       7.61207      5.71522     11.46974         0.121816      0.446745     -0.434032
O       7.68116      9.44236      2.70023        -0.280228      0.736901     -0.176197
O       7.75359      9.51721     15.71683        -1.011686      0.188105     -0.104961
O       7.66441      9.65070      6.97197        -0.294414     -0.058672      0.274670
O       7.61958      9.64698     11.48339        -0.368483      0.028688     -0.352871
O      11.49083      1.80703      2.68459        -0.401710      0.161816     -0.002945
O      11.58224      1.91982     15.84256         0.231651     -0.496639     -0.341905
O      11.55200     13.56977      2.60751        -0.049842     -0.466266     -0.054493
O      11.62306     13.33005     15.64163        -0.776396      0.016300      0.770231
O      11.55680      2.04008      7.06606         0.212815     -0.518418     -0.126780
O      11.53438     13.38399      6.98882         0.481593      0.363230      0.193356
O      11.55909      1.81404     11.41743        -0.960312      0.369894     -0.383822
O      11.57003     13.46479     11.35680        -0.827784      0.121129      0.299661
O      11.52937      5.70004      2.62791         1.082268      0.565045      0.288588
O      11.47504      5.72509     15.59731         0.704469      0.555981      0.159981
O      11.56033      5.77851      7.01910        -0.265873      0.162534      0.423890
O      11.54098      5.84262     11.36247        -0.779508     -0.462660      0.357162
O      11.47951      9.55982      2.60768         0.829810     -0.444347      0.244370
O      11.58149      9.56597     15.83888        -1.024781      0.189601     -0.092540
O      11.50218      9.53974      7.15362         0.087692      0.141992     -0.555923
O      11.50349      9.62910     11.48362        -0.310096      0.217277     -0.761019
O       1.84825      3.83516      2.65279         0.783082      0.343019      0.057776
O       1.88202      3.77750     15.73280         0.472028      1.596562      0.083186
O       1.78273      0.04372      2.78800         0.951081     -0.596709     -0.723620
O       1.95026     15.31381     15.83485         0.331561     -0.678213      0.002416
O      13.34079      3.76753      2.66650         0.410693      0.996499     -0.173340
O      13.43600      3.81210     15.84570         0.090983     -0.344256     -0.770311
O      13.52625     15.33663      2.73251        -0.084474     -0.413209     -0.315117
O      13.54264      0.00268     15.80414        -0.349131     -0.194850     -0.150197
O       1.96201      3.79245      7.00996        -0.129372      0.909277      0.468091
O       1.94874      0.05949      7.02610         0.356079     -0.843477      0.342404
O      13.48181      3.82525      7.20215         0.125965      0.634170     -0.284649
O      13.43169      0.06530      6.97629        -0.063058     -0.178504      0.314608
O       1.86778      3.86624     11.32691         0.410602     -0.367717      0.837912
O       1.92984      0.03739     11.38100         0.286978     -0.080860      0.513713
O      13.34636      3.91064     11.32632         0.509795     -0.447940      0.496299
O      13.47016      0.05714     11.36317         0.173720     -0.448342      0.187534
O       1.80391      7.69685      2.71766         0.058733     -0.901012      0.227468
O       1.79640      7.59175     15.69219         0.423741      0.736384      0.565571
O      13.54739      7.57918      2.69224        -0.685275      1.004529      0.148604
O      13.45163      7.64475     15.77186         0.078783      0.293317     -0.293396
O       1.89727      7.65998      7.07288         0.313399      0.195832     -0.263583
O      13.53822      7.71733      7.00149        -0.002769     -0.610279     -0.077904
O       1.98147      7.76978     11.40820         0.132286     -0.374173     -0.035934
O      13.25515      7.70789     11.23832         1.205108      0.054284      0.465528
O       1.84883     11.48098      2.68411         0.713517      1.054564     -0.064739
O       1.99417     11.39224     15.85537        -0.246627      1.195343      0.216558
O      13.26614     11.49100      2.55457         0.741644      0.069732      0.020646
O      13.57485     11.48171     15.70194        -0.411198      0.341153      0.696607
O       1.81445     11.54131      6.96129         0.947346      0.373765      0.318102
O      13.48166     11.52087      7.04450         0.024022     -0.076254      0.113536
O       1.69889     11.60824     11.36381         0.897330     -0.879728      0.265117
O      13.44307     11.50890     11.31770         0.273152      0.644705      0.490509
O       5.81027      3.83678      2.71034        -0.223095      0.724353      0.153845
O       5.81150      3.85607     15.85748        -0.177867      0.368289     -0.538754
O       5.80452      0.07092      2.59388        -0.187588     -1.069898      0.201160
O       5.71075      0.06140     15.79996         0.053524     -0.989210      0.172648
O       5.78363      3.81180      7.09151         0.718354      0.570630      0.080001
O       5.76960      0.00548      7.04669         0.491359     -0.476442      0.077569
O       5.74627      3.82984     11.34693        -0.321828     -0.007626      0.278082
O       5.67567     15.27069     11.50947         0.369801      0.944007      0.257090
O       5.74828      7.64790      2.78445        -0.165909     -0.017603     -0.154039
O       5.86240      7.64350     15.83097        -0.323052      0.180109     -0.306390
O       5.67599      7.71030      7.14040         0.418382      0.102457     -0.237113
O       5.62844      7.72182     11.30539         0.080557     -0.012834      0.502513
O       5.80631     11.54957      2.65882        -0.505233     -0.395454     -0.116408
O       5.84704     11.42341     15.91018        -0.490844      0.176826     -0.262323
O       5.75368     11.54462      7.04090         0.393059     -0.281703     -0.023108
O       5.72947     11.56702     11.40115         0.506496     -1.129427      0.542025
O       9.67128      3.87992      2.72331        -0.505979     -1.539755     -0.017707
O       9.69399      3.89600     15.80518        -0.743586     -0.364174     -0.931130
O       9.59743     15.32972      2.62069        -0.632774      0.927020      0.067878
O       9.74287     15.27262     15.67438         0.000585     -0.197787      0.577954
O       9.61823      3.80160      6.95280        -0.216400      0.613564      0.578882
O       9.71115     15.29443      7.13518        -0.130123      0.506660     -0.647635
O       9.66811      3.80869     11.51936        -0.540099     -0.176993     -0.336406
O       9.47828     15.30550     11.44447         0.493518      0.653378     -0.370486
O       9.70259      7.65804      2.76141        -0.326394      0.206203     -0.189254
O       9.59634      7.66422     15.76998         0.307616     -0.255350      0.028675
O       9.59679      7.72751      7.01093        -0.035141     -0.119069      0.060450
O       9.59543      7.76530     11.38896        -0.476414     -0.931734     -0.183147
O       9.63504     11.48228      2.55931        -0.143336      0.447770      0.223680
O       9.56324     11.44921     15.92025         0.572847      0.142082     -0.636854
O       9.75086     11.50479      7.01686        -0.826459     -0.470804      0.004414
O       9.66757     11.51675     11.41598        -0.634217      0.254916     -0.127887
