  # total energy = -7864.97627531 
CRSYTAL
PRIMVEC
    15.010000000000000    0.0000000000000000    0.0000000000000000
     0.0000000000000000   15.010000000000000    0.0000000000000000
     0.0000000000000000    0.0000000000000000    16.400000000000000
PRESSURE
16.4929 16.2037 7.5946 -0.047521 0.108127 -0.107098
PRIMCOORD
320 1
Pb       3.81394      3.65869      4.22691        -0.563702      0.588833     -0.719527
Pb       3.63927      3.75781     16.36555         0.264921     -0.582046      0.796954
Pb       3.73491     14.97948      4.16196        -0.284847      0.159727      0.267612
Pb       3.85742     14.95153      0.05989        -0.470309      0.132625     -0.064885
Pb      14.91591      3.82379      4.15842         0.602943     -0.957675      0.267231
Pb      14.88964      3.61356      0.05650         0.462754      0.296342     -0.156093
Pb      14.90146      0.03765      4.29911         0.052653     -0.159214     -0.369047
Pb       0.02690     14.93467      0.15950        -0.333935      0.183660     -0.241672
Pb       3.47056      3.76087      8.27624         0.697655     -0.558028     -0.256649
Pb       3.68101      0.12892      8.19793         0.010899     -0.247399     -0.428707
Pb      14.80498      3.79906      8.35201         0.559009      0.034602     -1.145847
Pb      14.81841     14.98871      8.19268         1.010759     -0.074461      0.013822
Pb       3.68390      3.68653     12.37726         0.126073     -0.122197     -0.238527
Pb       3.62999     14.94934     12.37345         0.511376      0.416635     -0.254276
Pb      14.91565      3.79546     12.40683        -0.093900     -0.238116      0.330212
Pb      14.99173     14.96972     12.32998        -0.427514      0.139186      0.253554
Pb       3.86901      7.48774      4.18530         0.234811      0.146839     -0.003162
Pb       3.78299      7.54031      0.07700        -0.667267     -0.317891      0.032624
Pb       0.13500      7.51904      4.19273        -0.576238      0.388596     -0.120638
Pb      14.98757      7.46373      0.05123         0.175277     -0.521083     -0.144884
Pb       3.74059      7.52026      8.24408        -0.266022     -0.165978      0.042294
Pb       0.04761      7.54538      8.37108        -0.359467     -0.116160     -0.527656
Pb       3.61535      7.45896     12.30002         0.714968      0.070419      0.624166
Pb      14.88873      7.44873     12.30324        -0.240226      0.055080      0.482475
Pb       3.86326     11.07078      4.32273        -0.261952      0.344284     -0.709145
Pb       3.77550     11.15494      0.06613        -0.196282      0.204466     -0.262843
Pb       0.17156     11.11634      4.14935        -0.468417      0.615233      0.378662
Pb       0.07319     11.31834      0.14340        -0.450333     -0.083591     -0.228602
Pb       3.76426     11.27963      8.24641         0.127382      0.309931     -0.357355
Pb       0.10372     11.27494      8.19570        -0.721540     -0.077400      0.293119
Pb       3.73935     11.23800     12.25409         0.230496     -0.274723      1.126362
Pb       0.02416     11.28230     12.31154        -0.383939     -0.126536     -0.092127
Pb       7.42563      3.85990      4.01901         0.070489     -0.414572      0.353983
Pb       7.46884      3.69378      0.01727        -0.359847     -0.092444      0.293009
Pb       7.51278     14.88739      4.13570         0.357247      0.031293      0.031718
Pb       7.42907     14.90610      0.02818         0.432755      0.216772     -0.426887
Pb       7.37407      3.72157      8.24806         0.398304     -0.416599     -0.492946
Pb       7.44043      0.21520      8.22355        -0.342533     -0.828927     -0.406017
Pb       7.28546      3.80945     12.39633         0.791560     -0.156169     -0.296913
Pb       7.43512     14.93532     12.27964        -0.004234      0.324549      0.398320
Pb       7.60250      7.46817      4.10646        -0.074447      0.270549     -0.042958
Pb       7.52248      7.43682     16.31314         0.154546      0.339862      0.427037
Pb       7.55626      7.38539      8.34049        -0.107797      0.310119     -0.770016
Pb       7.44286      7.62469     12.31487         0.339459     -0.373456     -0.241717
Pb       7.66774     11.09812      4.21073        -0.335930      0.567019     -0.039887
Pb       7.47117     11.26052     16.39028         0.347318     -0.122415     -0.479091
Pb       7.64665     11.31032      8.15130        -0.322361      0.640088     -0.224832
Pb       7.47743     11.35345     12.13847         0.237266     -0.704538      0.860217
Pb      11.09503      3.84166      4.15513         1.248617     -0.677159      0.553199
Pb      11.26792      3.76061      0.06108         0.349411     -0.345506     -0.163542
Pb      11.28719     14.92456      4.10900        -0.387076      0.028767     -0.344572
Pb      11.27327     14.96616      0.07121         0.296889     -0.436366      0.285835
Pb      11.20401      3.70598      8.35350        -0.536179      0.150317     -1.096640
Pb      11.17785      0.04568      8.25069        -0.123783     -0.152677     -0.142986
Pb      11.11905      3.72234     12.33878         0.616596      0.281059      0.550488
Pb      11.19957     15.00814     12.45198         0.139260      0.265057     -0.441517
Pb      11.43495      7.48609      4.19593        -0.426056      0.170049     -0.356210
Pb      11.23859      7.43726      0.08149         0.420845     -0.271811     -0.445314
Pb      11.24742      7.45218      8.29016         0.591240     -0.024411     -0.317890
Pb      11.16521      7.43387     12.30902         0.224467      0.082316     -0.100348
Pb      11.36163     11.10109      4.11964        -0.310605      0.687379      0.114131
Pb      11.29999     11.14304      0.00786        -0.064479      1.003901     -0.143797
Pb      11.33681     11.35914      8.31196        -0.261505     -0.146368     -0.307000
Pb      11.17031     11.25229     12.30404         0.252643     -0.257592     -0.066924
Ti       1.85316      1.76338      2.13851         0.030746      0.918545     -0.491249
Ti       1.80825      1.79724     14.36049        -0.026321      1.015947      0.738696
Ti       1.95214     13.10426      2.14793        -0.578504      0.192216      0.634801
Ti       1.89184     13.08790     14.40570         0.042590     -0.020798      0.130878
Ti      13.13925      1.77789      2.17151        -0.301603      0.598941     -0.138604
Ti      13.09921      1.81543     14.35549         0.346666      0.182247     -0.464224
Ti      13.17259     13.02426      2.24951        -0.634217      0.645040     -1.615167
Ti      13.18968     13.13587     14.36033        -1.112816     -0.733127      0.518684
Ti       1.77320      1.91686      6.10732         0.064320     -0.928462      0.140135
Ti       1.77850     13.09485      6.09264         0.782619      1.486953     -0.472690
Ti      13.05406      1.88737      6.26826        -0.499984      0.456608     -1.210370
Ti      13.06317     13.07768      6.22397        -0.151305      0.583594     -0.276167
Ti       1.74991      1.86776     10.35709         1.476687     -0.440824     -0.845333
Ti       1.88760     13.12489     10.22259        -0.815184      0.698899      0.269690
Ti      13.06934      1.92046     10.24346        -0.515061     -1.457487      1.002687
Ti      13.11974     13.16928     10.38010         0.198757     -0.798123     -0.914417
Ti       1.92835      5.55923      2.13876         0.330949     -0.440502     -0.240369
Ti       1.85785      5.59364     14.32906        -0.756775      0.777977      1.093526
Ti      13.21449      5.54018      2.21640        -0.841179      0.356861     -1.545659
Ti      13.05451      5.57211     14.43538         0.727361      1.001187     -0.445379
Ti       1.86398      5.67009      6.13639        -0.196049     -1.047159      0.563892
Ti      13.15364      5.62191      6.14791        -0.599455     -0.505030      1.103609
Ti       1.81524      5.61609     10.27941         0.546700     -0.154363     -0.702682
Ti      13.10664      5.58185     10.31402        -1.690928      1.415555     -0.275100
Ti       1.92048      9.32089      2.19411         0.440306      0.131235     -1.038469
Ti       1.76092      9.35310     14.38393         1.055486     -0.928284      0.370078
Ti      13.22342      9.33210      1.99978        -0.285278     -0.491705      0.451616
Ti      13.09636      9.39564     14.29556         0.893592     -0.761435     -0.177721
Ti       1.90966      9.38343      6.31632        -0.700528     -0.558742     -0.779785
Ti      13.17638      9.38129      6.25174         0.481882     -0.470371      0.404888
Ti       1.88703      9.35873     10.41429        -0.096290      0.269169     -1.073947
Ti      13.12300      9.40496     10.25532        -0.363243     -0.382987      0.766766
Ti       5.62141      1.81021      2.08533        -0.086530      1.323239     -0.710959
Ti       5.60586      1.82145     14.39560         0.352395     -0.036753     -0.093335
Ti       5.65571     13.10936      2.16964        -0.654798     -0.084600     -0.642967
Ti       5.61810     13.04331     14.31209         0.422045      0.616925     -0.056481
Ti       5.53983      1.91873      6.10445        -0.179010     -1.592867      1.028519
Ti       5.54390     13.12521      6.08048         1.061222      0.999592      1.466094
Ti       5.53592      1.86591     10.31050         0.047258      0.064500     -0.321164
Ti       5.57780     13.13389     10.22136         1.015718      0.608462     -0.413481
Ti       5.66983      5.68178      2.15276        -0.956079     -1.262743     -1.287790
Ti       5.56600      5.61174     14.38035        -0.259051     -0.397731     -0.309917
Ti       5.62158      5.62401      6.29892         0.385873      0.097266     -0.654448
Ti       5.56151      5.61612     10.22220         0.104735     -0.011778      0.325980
Ti       5.71536      9.41390      2.03810         0.010642     -0.623079      1.143358
Ti       5.57173      9.32461     14.34519         0.336097      0.828890     -0.473292
Ti       5.69520      9.38807      6.27598         0.211991     -0.262031     -1.044210
Ti       5.67141      9.39957     10.20942        -0.469147     -0.715591      1.526282
Ti       9.40431      1.84339      2.02114        -0.423980     -0.757543     -0.091602
Ti       9.36032      1.81542     14.40129        -0.815590     -0.238561      0.302456
Ti       9.34989     13.01924      2.08421         1.529891      1.118681      0.268024
Ti       9.42880     13.11418     14.32139        -1.012962     -0.006876      0.184276
Ti       9.32796      1.88093      6.04016         0.017725      0.448970      1.818422
Ti       9.33842     13.18687      6.18121        -0.339342     -1.216522     -0.378844
Ti       9.28352      1.87088     10.34124        -0.276467      0.403206     -0.574517
Ti       9.41368     13.18859     10.26747        -1.195842     -0.534808     -0.597567
Ti       9.47192      5.57416      2.05613        -0.814908      1.273683      0.245238
Ti       9.30274      5.59356     14.36656         0.503141      0.092745     -0.401359
Ti       9.39634      5.60231      6.18036        -0.724912     -0.076253      0.178705
Ti       9.33577      5.57619     10.21602         0.165182     -0.190889      1.432180
Ti       9.49700      9.34756      2.04985        -0.790652     -0.757333      0.619611
Ti       9.38939      9.39387     14.31530        -0.464044     -0.081491      0.542510
Ti       9.49049      9.38474      6.12724        -0.151149     -0.364825      1.206071
Ti       9.41103      9.34101     10.11822         0.552971      1.026680      1.110580
O       1.73350      1.78813      0.25068         0.363965      0.344239      0.447519
O       1.82872      1.87352     12.51632        -0.367084     -0.008440     -0.479619
O       1.95141     13.10031      0.28744        -0.630492     -0.208833     -0.816128
O       1.92980     13.08913     12.56220        -0.351549      0.170035     -0.234467
O      13.12006      1.84421      0.28273         0.263767     -0.083245     -0.384555
O      13.19608      1.83784     12.47603        -0.221017      0.133875      0.072146
O      13.27561     13.22151      0.28897        -0.604235     -0.874993      0.118973
O      13.19406     13.05122     12.49490        -0.177902      0.408552     -0.428994
O       2.01688      1.88213      4.26301        -0.635941     -0.617626      0.359183
O       1.91429     13.14412      4.22017        -0.101368      0.094387      1.200782
O      13.07426      1.83123      4.40409        -0.160080      0.010461     -0.417176
O      13.10209     13.16468      4.35578        -0.274637     -0.408406     -0.281447
O       1.92398      1.79596      8.49609        -0.391457      0.739396     -0.076035
O       1.66459     13.04968      8.46029         0.700986      0.260052     -1.054164
O      13.10294      1.83446      8.38714        -0.195326      0.122129      1.114095
O      13.15682     13.16067      8.47485        -0.310332     -0.255735     -0.022392
O       2.00262      5.66822      0.32686         0.043260     -0.229313     -0.686034
O       1.74678      5.60313     12.53161         0.406687      0.038803     -1.485447
O      13.03929      5.58090      0.17837         0.096726      0.117820      0.228506
O      13.00247      5.56639     12.44266         0.643448     -0.259102      0.432608
O       1.70132      5.66437      4.29595         0.333714      0.061314      0.069951
O      13.25794      5.51411      4.26929        -0.566596      0.734199     -0.355292
O       1.83502      5.68315      8.36924         0.007356     -0.552778      0.826552
O      12.96994      5.58190      8.43675         0.654942      0.020190      0.165259
O       1.90535      9.42733      0.25674        -0.126088     -0.254439      0.178219
O       1.82417      9.22031     12.53455        -0.096893      0.693752     -0.871634
O      13.18345      9.30404      0.20327        -0.062486      0.203326     -0.797022
O      13.08363      9.39164     12.48315         0.637458     -0.031563     -0.732275
O       1.88160      9.32391      4.34804         0.174977      0.019288      0.321745
O      13.19512      9.36012      4.44706        -0.205777      0.135188     -1.548102
O       1.89944      9.46589      8.50070        -0.022474     -0.418814     -0.425927
O      13.13264      9.29286      8.46499        -0.130546      0.229371     -1.027400
O       5.68238      1.87529      0.18270        -0.299882     -0.369375      0.259869
O       5.61045      1.94449     12.53516        -0.024982     -0.293933     -0.462978
O       5.63744     13.13601      0.26906         0.029549     -0.034832     -0.200940
O       5.52550     13.13568     12.43701         0.085252     -0.205035      0.456196
O       5.45427      1.86572      4.28450         0.480876     -0.046410     -0.648723
O       5.58799     13.04475      4.26576        -0.358333      0.185242     -0.931078
O       5.37013      1.82699      8.46734         0.723270      0.178178     -0.243385
O       5.75729     13.18336      8.45980        -0.262639     -0.496729     -0.604917
O       5.63582      5.50508      0.23607        -0.202841      0.660606      0.016159
O       5.51769      5.55137     12.50148         0.238506      0.247907      0.212899
O       5.71512      5.72644      4.41101        -0.176928     -0.517070     -1.020001
O       5.62809      5.72197      8.35286        -0.336583     -0.030553      0.713050
O       5.68496      9.35080      0.21307        -0.234222     -0.036564     -0.582242
O       5.56362      9.35694     12.50278         0.491071     -0.098279     -0.180255
O       5.60577      9.45582      4.23438        -0.092210     -0.162700      1.534414
O       5.51115      9.38749      8.45851         0.390023      0.027368     -1.620235
O       9.48275      1.79890      0.16284        -0.503107      0.387692      0.791564
O       9.32229      1.67976     12.57325        -0.001057      0.371242     -1.028357
O       9.43910     12.93679      0.27194        -0.404572      0.417044     -0.440047
O       9.41762     13.14423     12.44212        -0.272439      0.164433      0.182859
O       9.46573      1.97970      4.27867        -0.451718     -0.249862     -0.706010
O       9.35701     13.13721      4.33376         0.214622     -0.150798     -0.302095
O       9.23400      2.02935      8.49049         0.325902     -0.825796      0.281197
O       9.29824     13.15696      8.40486         0.082399      0.053694     -0.336897
O       9.33705      5.65088      0.22402         0.406594     -0.253974     -0.545239
O       9.26679      5.59775     12.54934         0.574402      0.094232     -0.223941
O       9.35828      5.62044      4.30034        -0.145401     -0.292562      0.080671
O       9.34014      5.47855      8.42647        -0.197493      0.615257     -0.865439
O       9.39705      9.41833      0.24542         0.348435     -0.063844     -0.600345
O       9.47565      9.39415     12.53101        -0.671408     -0.114989     -0.813526
O       9.47472      9.36242      4.30752         0.201488     -0.192901     -0.204439
O       9.46345      9.33527      8.34079        -0.339430      0.156526     -0.896033
O       3.75398      1.41316      2.16601        -0.457218      0.034641      0.205705
O       3.68577      2.07698     14.44918         0.362168      0.420294      0.670777
O       3.75148     13.60362      2.19222         0.335061     -0.504575      0.395734
O       3.74682     12.72442     14.53975        -0.402487      0.618109      0.346359
O      14.95312      2.18400      2.51901         0.577095     -0.531953     -0.953487
O      14.99568      1.57145     14.56457        -1.030350     -0.041158      0.180506
O      14.99062     12.66726      2.34649         0.397828      0.434336     -0.195463
O      14.95418     13.45379     14.59672         1.690975     -0.364447     -0.097016
O       3.59240      1.70004      6.35010         1.245692     -0.283757      0.261602
O       3.71041     13.14902      6.40741        -0.950571      0.263625      0.100401
O      14.89112      2.10940      6.47460         1.803990     -0.365518     -0.161870
O      14.93417     13.00560      6.26198         0.504457     -0.424243      0.551631
O       3.71288      1.64824     10.52883        -0.960824     -0.331475      0.648029
O       3.73461     13.52418     10.24262        -0.550358     -0.333589      0.858608
O      14.98408      2.31008     10.43587        -1.468344     -0.510227      0.171980
O      15.00524     12.83460     10.41840        -0.462045     -0.216031      0.914701
O       3.76463      5.95668      2.39231         0.285806     -0.302898      0.075239
O       3.70648      5.18242     14.54393         0.784422      0.440475     -0.077113
O       0.01192      5.30222      2.10415         0.384227     -0.366456      0.628115
O       0.02504      5.91468     14.59602        -0.837845     -0.148447      0.034843
O       3.73557      5.87101      6.29853        -0.376076     -0.505140      0.262659
O      14.93133      5.37500      6.49966         1.330229      0.521277     -0.287767
O       3.71987      5.98816     10.42672        -0.122630     -0.237575     -0.198484
O      14.92331      5.37769     10.46528         0.795012     -0.352772      0.059398
O       3.76366      9.00069      2.25840         0.283403      0.631806      0.002610
O       3.78048      9.71248     14.49975        -0.910935     -0.167136      0.625776
O       0.00795      9.68486      2.36535         0.294182     -0.296280     -0.422296
O      14.97574      8.98647     14.56516         0.475696      0.355962     -0.044002
O       3.73388      9.32937      6.45686         0.738849     -0.143275     -0.155917
O       0.02149      9.39559      6.42461         0.387888      0.043154      0.521359
O       3.70081      8.94942     10.51472         0.874072      0.880545     -0.288655
O       0.01870      9.56511     10.41658        -0.531427      0.476317      0.530558
O       7.52358      2.27889      2.23202         0.492376     -0.663722      0.190427
O       7.45671      1.43748     14.56617         0.560678      0.447456      0.128098
O       7.48839     12.91231      2.34865         0.204324     -0.542387      0.064699
O       7.50974     13.42271     14.50000        -0.602602     -0.363817      0.188440
O       7.34952      1.94227      6.44615         1.564932      0.428224     -0.335276
O       7.42779     12.94636      6.23421         0.604422     -0.128238      0.498969
O       7.41567      2.37745     10.42231         0.047977     -1.015341      0.321716
O       7.54693     12.82827     10.45867        -1.431544      0.110323      0.166642
O       7.54256      5.39437      2.24663        -0.269389     -0.319489      0.485343
O       7.44834      5.94197     14.42432        -0.385906      0.037957      0.753407
O       7.44278      5.40368      6.40995         0.889028      0.222526      0.204035
O       7.48399      5.41935     10.45153        -0.855314     -0.325316      0.001441
O       7.55918      9.53242      2.37075         0.049530      0.394299     -0.397391
O       7.53838      9.09833     14.58930        -0.631309     -0.213308     -0.103943
O       7.52182      9.52642      6.29149         0.417757      0.304284      0.304104
O       7.55694      9.66817     10.40619        -0.972537      0.236055      0.174725
O      11.27962      1.55345      2.18980        -0.760984      0.062689      0.620521
O      11.22135      2.09369     14.46432         0.494323      0.199864      0.419713
O      11.25695     13.25365      2.28546        -0.164689      0.593313      0.393577
O      11.20957     12.81431     14.51767         1.419224     -0.001262      0.418076
O      11.19483      1.71525      6.45298        -1.214844     -0.292669      0.031583
O      11.20820     13.27961      6.52211         0.390740     -0.039787     -0.201775
O      11.17610      1.45852     10.45187         0.784668      0.862594      0.072020
O      11.17056     13.57447     10.41884         1.645588     -0.556644      0.235659
O      11.25297      5.92311      2.28401         1.139499     -0.064814      0.194051
O      11.23561      5.37616     14.52687        -0.994290     -0.413816      0.335852
O      11.19895      5.69840      6.37770         0.511258      0.225765     -0.089873
O      11.17597      5.78952     10.43409         0.393556      0.801741      0.304957
O      11.36542      8.99189      2.25641        -0.653964      0.312655      0.334447
O      11.31160      9.70200     14.39978        -1.497989     -0.200662      1.271846
O      11.34865      9.19660      6.36740        -2.020175      0.000304      0.231454
O      11.24150      9.12476     10.44115         0.157113     -0.304613      0.083286
O       2.25043      3.65236      2.35001        -0.478558      0.939480     -0.336824
O       1.46030      3.77470     14.59077         0.645920     -1.188684      0.157693
O       1.31439     14.97584      2.34307         0.915774     -0.444254     -0.165728
O       2.07941     14.98582     14.59120         0.381068     -0.961578     -0.128840
O      12.83255      3.72565      2.30333        -0.141814     -0.184813      0.076581
O      13.30868      3.69988     14.58414         0.480360     -0.110508      0.074462
O      13.30964     14.93545      2.32783         0.651524      0.213272      0.489818
O      12.78921     14.99137     14.50552        -0.044541     -0.190951      0.289811
O       2.07006      3.73662      6.23508        -0.385228      0.874450      0.637716
O       1.58622     14.94294      6.38190         0.354828      0.825519     -0.028954
O      12.91001      3.74808      6.45587        -0.152827     -0.008447      0.105668
O      13.25588     14.97652      6.43596        -0.194513      0.165143      0.091603
O       2.10638      3.79915     10.43914         0.102346     -0.520631      0.217472
O       1.47554      0.02355     10.54417         0.595066     -0.593283     -0.058576
O      12.69536      3.73545     10.42162         0.506983     -1.047323      0.145684
O      13.33541     14.96863     10.46209         0.730559      1.615002      0.306168
O       1.56724      7.50039      2.28663        -0.138644     -0.240811      0.192465
O       2.25581      7.48235     14.48657        -0.220632      0.115519      0.924713
O      13.48320      7.43783      2.21045        -0.060700      0.381983      0.714296
O      12.90286      7.45193     14.38076        -0.497285      0.479198      0.693658
O       1.77268      7.48562      6.45166        -0.443045      0.473537     -0.021697
O      13.16862      7.43404      6.29698         0.427840      0.281217      0.513324
O       1.56781      7.44115     10.40070        -0.369712      1.193628      0.474519
O      13.29382      7.48394     10.38423         0.239561     -0.165888      0.557716
O       2.14754     11.26744      2.42847         0.416032     -0.603019     -0.339507
O       1.51309     11.19929     14.57044        -0.007085      0.896016     -0.036318
O      12.74647     11.16879      2.24218         0.606564     -0.171697      0.048897
O      13.39550     11.27069     14.47765         0.470959     -0.437028      0.752199
O       1.92338     11.24716      6.37643        -0.091638     -0.219339      0.293214
O      13.05869     11.22414      6.49233        -0.341507      0.477719      0.123303
O       2.20116     11.29083     10.50836        -0.451905     -0.845916      0.072913
O      12.72196     11.24305     10.46933         0.628830      0.621908     -0.214602
O       5.29554      3.67793      2.25908         0.321499      1.135405      0.631074
O       6.00461      3.69061     14.57222        -0.700677      0.809771     -0.028992
O       6.03938      0.01692      2.22012        -0.356496     -0.754999      0.432002
O       5.34976     14.96496     14.57894        -0.299738     -0.649939     -0.206042
O       5.39508      3.69486      6.47259        -0.315942      1.355196     -0.128475
O       5.71598     14.99745      6.37691        -0.555640     -0.174078     -0.168994
O       5.21380      3.79051     10.41500         0.377358      0.515131      0.009950
O       5.87418     15.00798     10.41775         0.296576      0.478539      0.526118
O       5.90741      7.50262      2.26901        -0.014794     -0.273864      0.028698
O       5.24611      7.48301     14.52330         0.472411     -0.676203      0.375148
O       5.80157      7.55432      6.36484        -0.285653     -0.224913      0.450664
O       6.02904      7.55479     10.40381        -0.759258     -0.686858      0.160831
O       5.34093     11.24287      2.19478        -0.221980      0.303905      0.286853
O       5.91850     11.23648     14.55812         0.191484     -0.112560      0.229691
O       5.50051     11.28539      6.52963        -0.142779     -0.912136     -0.223358
O       5.23794     11.23538     10.50132         0.605139      0.176492     -0.407202
O       9.80757      3.74282      2.31918        -0.954352     -0.337604     -0.917026
O       9.00994      3.69043     14.57401         0.405100      0.466553     -0.101687
O       9.15415     14.97172      2.35435        -0.035076      0.609318     -0.288881
O       9.67560     14.96063     14.68560        -0.103940     -0.298811     -0.218550
O       9.43559      3.70057      6.47653        -0.089899      0.108320     -0.693561
O       9.11381     14.98049      6.21669         0.208019      1.826973      0.743027
O       9.71779      3.74274     10.57730        -0.862379     -0.449664     -0.389807
O       8.92861      0.02612     10.38529         0.031483      0.185909      0.209765
O       9.21629      7.49772      2.30075        -0.310663     -0.253618     -0.141195
O       9.67110      7.47410     14.56916        -0.222852      0.474628      0.230215
O       9.15547      7.47073      6.37374         0.316134      0.354795      0.114793
O       9.16606      7.51939     10.43475        -0.387666     -0.749703      0.069794
O       9.69563     11.20789      2.37390        -0.245836     -0.656004      0.103394
O       9.05823     11.27052     14.55691         0.179388     -0.629615      0.048998
O       9.51571     11.28380      6.32116        -0.013592     -1.360764      0.418524
O       9.71066     11.25967     10.36219        -0.341329      0.157312      0.195472
