  # total energy = -7882.69408851 
CRSYTAL
PRIMVEC
    15.3600000000000000    0.0000000000000000    0.0000000000000000
     0.0000000000000000   15.3600000000000000    0.0000000000000000
     0.0000000000000000    0.0000000000000000    17.440000000000000
PRESSURE
0.955678 0.575631 -0.478424 0.283312 0.229056 -0.028981
PRIMCOORD
320 1
Pb       3.74647      3.83848      4.31617         0.944203     -0.202261     -0.108046
Pb       3.82851      3.83345     17.36442         0.204366      0.465126      0.486418
Pb       3.81474      0.02383      4.26771        -0.094089      0.056785     -0.345981
Pb       3.72747      0.05079      0.02606         0.360522     -0.086773     -0.358854
Pb      15.35181      3.76121      4.37023        -0.352012     -0.049380     -0.326004
Pb       0.02830      3.94133     17.38052        -0.337680     -0.303674      0.742198
Pb      15.31550     15.28838      4.30169         0.107699      0.092069     -0.206678
Pb      15.25351     15.28519      0.00560         0.100264      0.139413     -0.237459
Pb       3.78294      3.74021      8.76119         0.070059      0.494847     -0.206821
Pb       3.88905     15.34072      8.66018        -0.192097     -0.092208     -0.108230
Pb      15.33610      3.78110      8.69950        -0.567462      0.235482     -0.637289
Pb      15.30174      0.04405      8.66349        -0.099398     -0.405124     -0.347412
Pb       3.65156      3.79405     13.03462         0.075501      0.497401      0.497006
Pb       3.73675     15.26113     13.04467         0.826589     -0.062619      0.409598
Pb      15.34010      3.80595     13.04628        -0.103510     -0.003462     -0.112794
Pb       0.04526      0.00866     13.01331        -0.553881      0.167651      0.509135
Pb       3.82864      7.63071      4.28483         0.306581      0.133605      0.667321
Pb       3.76643      7.62940     17.35518         0.306795     -0.306741      0.414210
Pb       0.01469      7.72355      4.38190        -0.120830     -0.162985     -0.002561
Pb      15.14788      7.70229     17.32557         1.268552      0.136042      0.491635
Pb       3.92821      7.63989      8.76229        -0.251766     -0.301626     -0.364836
Pb       0.07360      7.60403      8.69993        -0.186431      0.134718     -0.075906
Pb       3.76893      7.63250     12.98522        -0.006240      0.182423     -0.129341
Pb       0.04596      7.63187     13.06054         0.075362      0.520081     -0.795813
Pb       3.76004     11.54575      4.22250         0.328761      0.277696      0.178266
Pb       3.94650     11.51751     17.42398        -0.206254      0.265225     -0.023428
Pb      15.28521     11.57319      4.33374         0.785865     -0.321791      0.243754
Pb      15.29982     11.56836     17.33340         0.425460     -0.607185      0.027576
Pb       3.80038     11.54812      8.61608        -0.164013     -0.219612      0.474959
Pb      15.26072     11.38791      8.64643         0.528583      0.315191      0.329236
Pb       3.82015     11.53426     13.14643        -0.146542     -0.135613     -0.429827
Pb       0.00254     11.53939     13.13768         0.158619     -0.355535     -0.309643
Pb       7.71306      3.74595      4.42508        -0.412342      0.363743     -0.583773
Pb       7.64680      3.90910     17.34214        -0.281857      0.085046      0.134979
Pb       7.73671      0.09121      4.27548        -0.235624     -0.435220      0.092432
Pb       7.69224      0.04387     17.37591        -0.018007     -0.359824     -0.013367
Pb       7.72251      3.68882      8.76233        -0.266787      0.610369     -0.084305
Pb       7.62529     15.18066      8.62957         0.269533      0.327183      0.120961
Pb       7.72001      3.82732     13.19634         0.114911     -0.356458     -0.440226
Pb       7.56597      0.05223     13.10688         0.896237     -0.555559     -0.008817
Pb       7.64560      7.59845      4.30513        -0.343642      0.436879     -0.012148
Pb       7.71232      7.68698     17.40198        -0.144676     -0.021055     -0.224589
Pb       7.57865      7.69782      8.66265         0.232390      0.075477     -0.327353
Pb       7.51461      7.64342     12.99042         0.171239      0.184756      0.351529
Pb       7.67041     11.54089      4.33500         0.098993     -0.009524     -0.089229
Pb       7.76927     11.50277      0.08087        -0.351605     -0.171085     -0.703374
Pb       7.47665     11.47546      8.61718         0.779872     -0.083487     -0.579766
Pb       7.64531     11.39983     13.09339         0.488268      0.417277      0.083438
Pb      11.43736      3.80861      4.34922         0.078506     -0.087618      0.067179
Pb      11.66544      3.84314     17.36896        -0.410494     -0.064690      0.302718
Pb      11.39612     15.30939      4.27746         0.177943      0.549434      0.265836
Pb      11.54204     15.32442     17.40172        -0.523454     -0.112951     -0.277524
Pb      11.40533      3.84792      8.71531         0.747440     -0.022541     -0.177862
Pb      11.52465     15.25007      8.65467        -0.014436      0.162485      0.075428
Pb      11.57055      3.79134     13.10524        -0.130215     -0.166937     -0.335975
Pb      11.60879     15.35331     12.90790        -0.878307     -0.260615      0.963349
Pb      11.41320      7.77608      4.29306         0.738541     -0.422033      0.329684
Pb      11.59581      7.59945     17.39555        -0.625371      0.021477     -0.101161
Pb      11.41606      7.61942      8.71811         0.494414      0.342666      0.030269
Pb      11.48712      7.71554     12.93062         0.015483     -0.075052      0.190885
Pb      11.54412     11.46613      4.39578        -0.301138     -0.309328     -0.195068
Pb      11.50193     11.47361     17.42514         0.138463      0.095120     -0.522080
Pb      11.57816     11.52794      8.66443        -0.119176     -0.387002     -0.115000
Pb      11.49410     11.44800     12.98890        -0.107049      0.262323     -0.110400
Ti       1.88251      1.94775      2.24270         0.574466     -0.791231      0.148830
Ti       1.82013      1.96494     15.46589         0.407801     -0.274936     -0.518034
Ti       1.87294     13.42381      2.25272         0.586240      0.357548      0.914559
Ti       1.99985     13.46737     15.39052        -0.639683     -0.506974      0.847838
Ti      13.40598      1.86415      2.27621        -0.306901      0.228320     -0.778271
Ti      13.39698      1.86342     15.42167        -0.203560     -0.418733      0.687231
Ti      13.29038     13.38828      2.30812         1.471894      0.064190      1.469977
Ti      13.45268     13.37242     15.35522        -0.444481      0.595956      0.119278
Ti       1.83863      1.84331      6.62417         0.007148      0.073372     -0.534480
Ti       1.89801     13.37554      6.66705        -0.589709      0.434722      1.309634
Ti      13.34598      1.84607      6.63765         0.449433      0.933110     -0.158379
Ti      13.46327     13.38050      6.52710         0.077356      0.674816      1.777504
Ti       1.88916      1.88460     11.02131        -0.685957      0.611900      0.800845
Ti       1.86672     13.47383     11.01078         1.376862     -0.729863      0.503600
Ti      13.40107      1.92774     10.99618         0.339894      0.510668     -0.988245
Ti      13.50742     13.41168     11.05885        -1.267808     -0.606161     -0.788451
Ti       1.90814      5.71298      2.34591        -0.350384      0.677063     -0.548928
Ti       1.84454      5.77830     15.37996         1.388211      0.027098      1.579500
Ti      13.41018      5.71203      2.42421        -0.372790      0.580721     -0.628765
Ti      13.42499      5.70589     15.26040        -0.237358      0.016517      0.517838
Ti       1.92254      5.72181      6.59817         0.107844      0.061743      0.639191
Ti      13.41599      5.80326      6.66251        -0.045466     -0.994594      1.690499
Ti       1.90024      5.71975     11.02564         0.078184      0.670891      0.341256
Ti      13.40836      5.71679     11.10299         0.552667      0.327895     -1.705125
Ti       2.02740      9.53862      2.31234        -0.977166      0.670012     -1.428113
Ti       2.04140      9.59815     15.39846        -1.545635     -0.118820     -0.790226
Ti      13.59132      9.53883      2.31819        -1.029841      0.284701      0.358906
Ti      13.45190      9.52442     15.29710         0.278790      1.028206     -0.367308
Ti       2.01830      9.55635      6.68578        -0.955235     -0.229245      0.586971
Ti      13.47087      9.55384      6.66023        -0.302599     -0.219169      0.681655
Ti       1.92428      9.68818     11.11022         0.076462     -0.214457     -0.354288
Ti      13.41867      9.59768     11.03506         0.907679      0.198895     -1.052343
Ti       5.73312      1.92208      2.27296        -0.026537      1.059742      1.138496
Ti       5.73012      1.89046     15.28581        -0.336293     -0.518541      1.733513
Ti       5.73312     13.45322      2.25735        -0.397604      0.199043      0.161235
Ti       5.78872     13.40307     15.38325         0.276469     -0.126958      2.118470
Ti       5.67973      1.95463      6.67253         0.577486     -0.317348      0.286601
Ti       5.69785     13.46258      6.57731         0.964384     -0.204675     -0.617865
Ti       5.69637      1.94397     11.21729         0.500180     -1.212149     -0.372922
Ti       5.81964     13.33524     11.10572        -0.643830      1.533211      0.214666
Ti       5.71311      5.77253      2.33621         1.302265     -0.687489     -1.376099
Ti       5.73826      5.70610     15.29158        -0.385233      0.985992      0.836011
Ti       5.68835      5.71377      6.76900         0.181560      0.411657     -0.100568
Ti       5.81223      5.60875     11.10473        -2.153230      1.273617     -1.625846
Ti       5.75374      9.61212      2.27956         1.220917     -0.152528     -0.389490
Ti       5.78354      9.54440     15.41532         0.503245      0.224404      0.700956
Ti       5.71526      9.64354      6.50879         0.847614     -0.404564      0.590707
Ti       5.75409      9.56536     10.97347        -1.825666     -0.351287     -0.534160
Ti       9.54712      1.95519      2.24762         0.881880     -0.138261      1.481636
Ti       9.55435      1.95434     15.37618         1.337126     -1.501091     -0.770261
Ti       9.54031     13.44239      2.24692         0.103886      0.415397      1.278149
Ti       9.54650     13.42583     15.38822         0.991141     -0.043038      1.163063
Ti       9.53571      1.83952      6.79095         0.744223      0.777213     -0.841653
Ti       9.61574     13.32771      6.60824         0.021483      0.411843     -0.397848
Ti       9.56746      1.92045     11.11203         0.530874     -1.021367      0.369403
Ti       9.58974     13.38873     11.05760         0.160009      0.213972     -0.689888
Ti       9.52799      5.77945      2.28754         0.598917     -0.846474      0.124146
Ti       9.62023      5.74496     15.28198        -0.257537      1.003223      0.849340
Ti       9.54045      5.78649      6.72769         0.591511     -0.539512      1.999792
Ti       9.55580      5.71427     11.06974         0.544795      0.636003     -0.491569
Ti       9.65266      9.63313      2.38406        -0.493354      0.496944     -0.016843
Ti       9.63188      9.59695     15.37655         0.032816     -0.215218      0.189615
Ti       9.59868      9.55436      6.60310         0.701914      0.390582     -0.686963
Ti       9.50977      9.53338     10.92925         0.850923      0.948181     -1.269266
O       1.90729      1.92960      0.47840         0.236263     -0.117075     -0.335385
O       1.78773      2.15925     13.65228         0.198586     -0.828651      1.342569
O       1.91654     13.53059      0.52541         0.055421     -0.103635     -1.273095
O       1.98185     13.45302     13.65547        -0.189711      0.275816     -0.627596
O      13.32959      1.86806      0.44189         0.157122      0.149259      1.782941
O      13.44970      1.97937     13.67572        -0.106199     -0.278544     -0.423454
O      13.44767     13.31539      0.58298         0.043924      0.055207     -0.491072
O      13.58304     13.48711     13.59730        -0.317728     -0.224745      0.033406
O       1.76732      1.87371      4.81382         0.198060      0.225364      1.081872
O       1.83055     13.33197      4.94792         0.380468      0.190561     -0.741056
O      13.46450      1.86981      4.83880         0.117791     -0.025613      0.289935
O      13.47041     13.47664      4.77586        -0.012553     -0.100398     -0.363829
O       1.79316      1.84961      9.29484         0.637338      0.010302     -0.794145
O       1.99057     13.39229      9.26616        -0.157038      0.378820      0.459423
O      13.44562      1.95895      9.20208        -0.052343     -0.194268      0.880723
O      13.36521     13.30320      9.25029         0.307556      0.428025      1.664016
O       1.86727      5.68188      0.56414         0.004447      0.436393      0.891074
O       1.88943      5.74484     13.65776        -0.064954     -0.224123     -1.074277
O      13.29720      5.79172      0.59538         0.428127     -0.124684      0.752929
O      13.40193      5.67586     13.51768         0.187549      0.329829      0.420350
O       2.09555      5.75442      4.81474        -0.629134     -0.258560      0.469948
O      13.42318      5.82799      4.92702        -0.073897     -0.185336     -0.269902
O       2.04874      5.75236      9.27832        -0.544117     -0.212035      0.246241
O      13.40144      5.71488      9.28019         0.202096     -0.031949      1.367053
O       1.94982      9.49777      0.49790         0.073382      0.045973      1.553620
O       1.99939      9.52515     13.54074         0.120713      0.277039      1.852449
O      13.56248      9.63336      0.51761        -0.087270     -0.408661      0.755382
O      13.44236      9.53492     13.48895        -0.006568      0.134316      1.191528
O       2.00290      9.48920      4.96231        -0.050146      0.411378     -0.746816
O      13.49089      9.45574      4.90764        -0.014494      0.183148      0.211083
O       1.82660      9.78200      9.34448         0.589556     -0.361570     -0.190573
O      13.47729      9.72802      9.19807         0.242253     -0.157842      1.181377
O       5.76762      1.98036      0.52868         0.080971     -0.110273     -0.367859
O       5.92148      1.81592     13.53765        -0.661790      0.854558      0.573122
O       5.59862     13.47726      0.49799         0.255826      0.300855      0.295828
O       5.87945     13.33353     13.67574        -0.013473     -0.110840     -1.367702
O       5.78246      1.91088      4.94558         0.225334      0.159519     -0.269948
O       5.78475     13.37932      4.81594        -0.460596      0.222868      0.427473
O       5.48462      1.94711      9.48254         0.818658     -0.200859     -0.852617
O       5.80593     13.53574      9.32129         0.104265     -0.624745      0.487256
O       5.77170      5.78154      0.54120         0.270974     -0.137917      0.326078
O       5.81358      5.71795     13.52222         0.076036     -0.053125      0.110253
O       5.65477      5.71052      5.01448         0.471346      0.084339      0.137565
O       5.53920      5.64146      9.26872         0.500043      0.292339      0.960827
O       5.92519      9.44511      0.46462        -0.587295      0.414919      1.302552
O       5.69656      9.63437     13.65991         0.290490     -0.099505     -0.057112
O       5.77907      9.71899      4.76634        -0.029303     -0.100636     -0.265155
O       5.83784      9.65386      9.15119        -0.383263     -0.240840      1.414850
O       9.52610      1.90762      0.54710        -0.110917      0.347061     -1.562224
O       9.67441      1.91829     13.56772        -0.353776     -0.085424      0.810847
O       9.65141     13.50707      0.53132        -0.231066     -0.497004     -0.805987
O       9.55006     13.25684     13.66345         0.154977      0.252049     -0.598884
O       9.60767      1.96161      4.99982        -0.453121     -0.103784      0.429887
O       9.76946     13.52984      4.82080        -0.582100     -0.511741      1.345978
O       9.66845      1.87143      9.37019        -0.536586      0.268458     -0.652756
O       9.52921     13.32369      9.23588         0.080299      0.205858      1.022423
O       9.70670      5.74776      0.52960        -0.427747     -0.153960      0.371190
O       9.56821      5.94282     13.53855        -0.069766     -0.443088     -0.227277
O       9.70645      5.77068      5.02397        -0.509073     -0.262367     -1.489926
O       9.66538      5.79469      9.29979        -0.206677     -0.150972      1.070823
O       9.65346      9.59547      0.60043        -0.116091      0.156705      0.480729
O       9.69297      9.58089     13.60113        -0.330411     -0.018171      0.283684
O       9.78799      9.63631      4.74814        -0.769655     -0.250574      0.895680
O       9.59454      9.50890      9.13182        -0.651533      0.275213      0.841484
O       3.87083      1.92839      2.75837        -0.194331      0.047272     -0.275420
O       3.77560      2.04876     15.84875         0.620155     -0.807760     -0.904010
O       3.77566     13.48789      2.75731         0.778173      0.009004     -0.021588
O       3.89813     13.43203     15.69633        -0.556645     -0.270306      0.302770
O       0.03854      1.93907      2.48718        -1.225012      0.069104      0.683545
O      15.30036      1.81864     15.93448         0.385705      0.475815     -0.537072
O       0.06887     13.40128      2.81394        -0.585407      0.119466     -0.558458
O      15.35272     13.46410     15.83079         0.117980     -0.161617     -0.023198
O       3.79158      1.85918      6.99809        -0.109383      0.128612      0.221728
O       3.87385     13.43124      7.10874        -0.504116      0.267802     -0.277169
O      15.30523      1.88489      7.10060         0.519236     -0.252242     -0.123185
O      15.29108     13.51502      7.08804         0.584641     -0.454690     -0.489193
O       3.82797      2.09291     11.48671        -0.664581     -0.754090      0.256833
O       3.89833     13.48033     11.54958         0.092191     -0.078787     -0.313039
O      15.34089      1.82656     11.33055        -0.219309      0.074695      0.543689
O       0.03257     13.47827     11.50250        -0.249896      0.511369     -0.373575
O       3.93752      5.79371      2.67750        -2.484185      0.029434      0.355827
O       3.82314      5.77526     15.87555         0.338849     -0.375131     -0.821577
O       0.01615      5.72300      2.82093         0.036773      0.109233     -0.296942
O       0.01464      5.82231     15.79979        -1.466901     -0.611374     -0.335720
O       3.77615      5.78229      7.09630         0.611012     -0.326421      0.147164
O       0.03546      5.78945      7.09267        -0.456219     -0.274653     -0.317340
O       3.79743      5.61204     11.48028        -0.117817     -0.177781      0.146645
O      15.33486      5.70052     11.51568         0.687746      0.458882     -0.263295
O       3.89953      9.56476      2.81155        -0.378282      0.054020     -0.825469
O       3.85218      9.64497     15.94442         0.546318     -0.580612     -0.725944
O       0.03986      9.57005      2.85643         0.832862     -0.107622     -0.592907
O       0.03522      9.56482     15.76655        -0.452115     -0.180783     -0.283481
O       3.89459      9.59454      6.99876        -1.005451      0.046768      0.394484
O       0.05077      9.65360      7.06532        -0.353503     -0.484375     -0.103956
O       3.81276      9.54610     11.48034         1.124751      0.710243     -0.200225
O       0.11537      9.65617     11.43449        -1.676021     -0.061108      0.582690
O       7.72308      2.00918      2.80491        -0.827401     -0.264270     -0.212178
O       7.69844      1.89134     15.83310        -1.138357      0.395023     -0.517415
O       7.66088     13.40097      2.64022        -0.452198      0.145874     -0.085971
O       7.70738     13.39707     15.94895        -0.591247      0.294905     -0.393547
O       7.67000      1.93170      7.26711        -0.660864     -0.221205     -0.406319
O       7.64313     13.32432      6.90499         0.228060      0.378504      0.604974
O       7.75123      1.88277     11.56814        -0.678817     -0.045720     -0.315218
O       7.72773     13.50290     11.59641        -0.292916     -0.684618     -0.766883
O       7.59062      5.61542      2.71510         1.828538      0.447127      0.379435
O       7.70199      5.74315     15.72205         0.062639     -0.299116     -0.021046
O       7.70859      5.77475      7.31870        -1.208432     -0.147879     -0.852290
O       7.62174      5.92490     11.31476         1.397108     -0.239803      0.259927
O       7.71724      9.77301      2.81776        -0.266855     -0.407569     -0.587821
O       7.71303      9.63452     15.82590         0.121358     -0.339403     -0.368652
O       7.72423      9.61003      6.87023        -1.038107      0.088626      0.328498
O       7.55161      9.45927     11.31119         1.438166      0.093133      0.431318
O      11.43527      1.88342      2.73069         1.388570     -0.061602     -0.283827
O      11.48775      1.83735     15.89981        -0.046401      0.624933     -0.583501
O      11.49084     13.56228      2.67709         0.477160     -0.636811     -0.263977
O      11.55680     13.33918     15.88443        -0.396248      0.212493     -0.516421
O      11.50301      1.89660      7.07032        -0.498998     -0.064561      0.141256
O      11.57865     13.46671      7.09438        -1.160650     -0.341779     -0.484836
O      11.53323      1.96085     11.43217        -0.050008      0.523698      0.371608
O      11.61123     13.31333     11.48681        -0.863241      0.046265     -0.134989
O      11.52432      5.82720      2.79849        -0.672662     -0.180083     -0.267937
O      11.50108      5.78249     15.76743         0.561725     -0.365496     -0.355503
O      11.45878      5.75021      7.34767         0.424927      0.021609     -1.523749
O      11.57129      5.71375     11.58774        -1.412036      0.167247     -0.558255
O      11.59402      9.63194      2.76041        -0.474595     -0.292037     -0.530131
O      11.59044      9.65232     15.77313        -0.176613     -0.397730     -0.052807
O      11.52994      9.65858      6.93761         0.357398     -0.386490      0.358940
O      11.54997      9.70808     11.09014        -0.192164     -0.371409      1.207584
O       1.97873      3.85244      2.68113        -0.050578     -0.053363      0.300780
O       1.87190      3.86862     16.01289        -0.271659     -0.283396     -1.244657
O       2.06498      0.06292      2.63161        -0.853900     -0.496865      0.088228
O       1.94060     15.31951     15.72739         0.063688      1.376786      0.257848
O      13.43732      3.79950      2.67366        -0.129604     -0.228724      0.225566
O      13.41618      3.83751     15.76625         0.127785      0.232520     -0.069077
O      13.54366     15.28617      2.69333        -0.290234      0.854598     -0.493728
O      13.35260     15.30317     15.80632         0.471898      0.098659     -0.028218
O       1.86784      3.77257      7.08903         0.113533      0.085929     -0.438673
O       1.91730     15.27214      7.08483        -0.061293      1.056136     -0.034276
O      13.43959      3.82891      7.02379         0.030440      0.189926     -0.071550
O      13.40298     15.32955      7.13936         0.074808      0.135148     -0.417830
O       1.79900      3.77705     11.50313         0.291304      0.409442     -0.472417
O       1.97196      0.04951     11.59780        -0.053492     -0.509693     -0.724188
O      13.49308      3.85167     11.51703        -0.307140     -1.175197     -0.277732
O      13.34142      0.05048     11.46727         0.909743     -0.838857     -0.654465
O       1.99580      7.70667      2.82660        -0.322885     -0.769630     -0.633846
O       1.93525      7.61837     15.84818         0.055269      0.923292     -0.422230
O      13.43472      7.66524      2.84133         0.484442      0.184046     -0.770735
O      13.44330      7.59360     15.70446        -0.240237      0.840296     -0.059306
O       1.90907      7.61633      7.10383         0.196827      0.677183      0.010132
O      13.43931      7.66901      7.22203         0.065083      0.133623     -0.561743
O       1.96187      7.69024     11.39579        -0.327169     -0.972152      0.122257
O      13.54608      7.68274     11.44134        -0.488898      0.414232     -0.158972
O       2.03842     11.51065      2.60520        -0.449117     -0.583027      0.133276
O       1.93889     11.49449     15.72397         0.040074     -0.041665      0.085579
O      13.56389     11.43185      2.89120        -1.114056      0.875025     -1.126051
O      13.45793     11.48542     15.83599         0.341585     -0.384828     -0.597275
O       1.94431     11.52021      7.21244         0.115311     -0.146041     -0.893762
O      13.43591     11.53678      6.99227         0.059165     -0.314835     -0.370863
O       1.95238     11.68478     11.61142         0.082911     -0.958979     -0.404141
O      13.53476     11.53204     11.60204         0.190455     -0.212425     -0.620791
O       5.72424      3.84518      2.80542        -0.002651     -0.476048     -0.153130
O       5.72117      3.86096     15.73928         0.604909     -0.874377     -0.212003
O       5.76823      0.03918      2.76704         0.190925     -0.195462     -0.331307
O       5.70386     15.35527     15.73962         0.346361      0.905712     -0.178424
O       5.74260      3.82136      7.11741        -0.069121     -0.126626      0.218823
O       5.78657      0.02910      7.07541        -0.118201     -0.545733      0.110790
O       5.90393      3.81657     11.52544         0.134755     -0.162727      0.339782
O       5.81255     15.35104     11.61487        -0.520008     -0.087565     -0.494425
O       5.82983      7.73279      2.76766         0.256295     -0.414748     -0.096141
O       5.82222      7.63873     15.67788        -0.233032      0.129659      0.077251
O       5.71564      7.75702      7.05758         0.336816     -1.022911      0.162075
O       5.60326      7.59775     11.48491         0.411585      0.655008     -0.482562
O       5.65583     11.55218      2.49368         0.054676     -0.280087      0.294233
O       5.81182     11.50315     15.94668        -0.166683     -0.132004     -0.459731
O       5.63944     11.50694      7.01368         0.716726      0.528475      0.114702
O       5.78222     11.46356     11.51984         0.117549      0.109777     -0.607289
O       9.69006      3.84965      2.81794        -0.614519      0.423498     -0.470315
O       9.62159      3.79552     15.54495        -0.085528      1.141352      0.553066
O       9.56902      0.00109      2.71825        -0.369215      0.416172     -0.059451
O       9.57707     15.33144     15.91553         0.044388      0.182164     -0.673743
O       9.51447      3.84173      7.24010         0.340459     -0.369987     -0.342828
O       9.50746     15.33368      7.01665         0.221888     -0.808576      0.409938
O       9.49190      3.87366     11.49691         0.267212      0.277735     -0.096647
O       9.79816     15.27673     11.37348        -0.559287      0.103270      0.077432
O       9.34649      7.65692      2.65100         0.965087      0.334866      0.160290
O       9.65463      7.68135     15.83045        -0.069171      0.006068     -0.200837
O       9.58356      7.69007      7.01434         0.088672     -0.074918      0.241599
O       9.69073      7.74315     11.38116        -0.138902     -1.014513      0.175745
O       9.68574     11.63145      2.80903         0.060262     -1.176488     -0.522141
O       9.57097     11.50966     15.84387         0.259157     -0.449540      0.207929
O       9.58251     11.44066      6.93241         0.270707      1.460810      0.118631
O       9.54657     11.39776     11.44237        -0.263024      0.660226      0.032102
