  # total energy = -7881.26068541 
CRSYTAL
PRIMVEC
    15.3600000000000000    0.0000000000000000    0.0000000000000000
     0.0000000000000000   15.3600000000000000    0.0000000000000000
     0.0000000000000000    0.0000000000000000    17.440000000000000
PRESSURE
1.71257 1.31308 0.086654 -0.396316 -0.404036 -0.061133
PRIMCOORD
320 1
Pb       3.86424      3.82799      4.38577         0.242822     -0.256977     -0.299191
Pb       3.91589      3.82878     17.40635        -0.853658     -0.109663      0.515560
Pb       3.80167      0.02435      4.29698        -0.178073     -0.000050      0.504080
Pb       3.67095     15.34711     17.36285         0.764208      0.008434      0.654542
Pb       0.04212      3.71947      4.35006         0.242191      0.410326      0.284804
Pb       0.08373      3.98136     17.40652        -0.080142     -0.753582      0.157209
Pb       0.07832      0.01172      4.30559        -0.276376     -0.471073      0.238713
Pb      15.24468     15.31119     17.37639        -0.577958      0.594802      0.784491
Pb       3.74853      3.73126      8.73834         0.466077      0.179058      0.174866
Pb       3.88578      0.01658      8.56257         0.024255     -0.425920      0.563161
Pb      15.18146      3.94297      8.62702         0.191497     -0.998761      0.954529
Pb      15.19511     15.35833      8.68469         0.573438     -0.059471      0.400167
Pb       3.71760      3.69263     13.10532         0.470399      0.014822     -0.714677
Pb       3.71215     15.33787     12.94994         0.528028     -0.252968      0.094025
Pb       0.04507      3.79099     13.05957        -0.705212     -0.049253     -0.130572
Pb      15.35487     15.31040     13.06714        -0.117872     -0.197054     -0.390553
Pb       3.86650      7.65332      4.33123        -0.388738     -0.155523     -0.058678
Pb       3.80656      7.56836     17.36390        -0.146509      0.031656      0.562663
Pb       0.10557      7.83509      4.35655         0.249250     -0.288696     -0.000204
Pb      15.14687      7.68605     17.39674         0.935966      0.028267     -0.101953
Pb       3.85445      7.72309      8.64428        -0.096671     -0.449486      0.664996
Pb       0.05780      7.59259      8.62314        -0.160967      0.261373      0.418630
Pb       3.80573      7.55884     12.97211         0.145765      0.137890     -0.070314
Pb       0.00175      7.62659     13.11626         0.156613      0.074725     -0.449348
Pb       3.81047     11.59913      4.21691        -0.451770     -0.025550      0.334893
Pb       3.98495     11.60748     17.39632         0.030155     -0.065810      0.296469
Pb       0.02833     11.56173      4.38013        -0.189396      0.109248     -0.486630
Pb      15.28959     11.59061     17.27197        -0.455821     -0.320003      0.887183
Pb       3.88383     11.54148      8.60447        -0.706917     -0.204880      0.307675
Pb      15.25722     11.42430      8.68902         0.313366     -0.160308     -0.216421
Pb       3.90305     11.46967     13.15896        -0.384759      0.089727     -0.329519
Pb       0.15447     11.59215     13.05923        -0.563875     -0.390147      0.355242
Pb       7.73076      3.74396      4.37315        -0.362206     -0.096076     -0.727420
Pb       7.67389      3.89200     17.39208        -0.029304     -0.106044      0.893650
Pb       7.71836      0.03065      4.37013         0.097673      0.109932      0.239105
Pb       7.58269      0.09136     17.29854         0.289159     -0.661879      0.652694
Pb       7.63637      3.80769      8.77918         0.065527     -0.257561     -0.407308
Pb       7.65717     15.20309      8.71383        -0.397810      0.960730     -0.354970
Pb       7.85886      3.90886     13.08939        -0.578314     -0.967587      0.315942
Pb       7.65457      0.13384     13.03668        -0.434452     -0.022685      0.020653
Pb       7.72470      7.51830      4.31503        -0.414628      0.453270     -0.090402
Pb       7.61053      7.78859     17.37807         0.478814     -0.408490      0.835165
Pb       7.68096      7.69573      8.64283         0.108101     -0.975738      0.362130
Pb       7.56587      7.71379     13.01666         0.281284     -0.233751      0.343326
Pb       7.64632     11.54721      4.30493         0.613058     -0.108132      0.541883
Pb       7.75985     11.50727     17.43046        -0.402377      0.453937     -0.146555
Pb       7.48266     11.58024      8.53287         0.783878     -0.205565      0.437326
Pb       7.74914     11.45364     13.01686         0.195169      0.400049      0.801444
Pb      11.43747      3.80397      4.29798        -0.247348     -0.773098      0.269143
Pb      11.75250      3.88907      0.02934        -0.397255     -0.111287      0.191685
Pb      11.50743     15.23500      4.31588        -0.345553      0.674844      0.074778
Pb      11.34132     15.27643      0.01291         0.687711     -0.076469      0.161137
Pb      11.36654      3.87784      8.69677         0.423497     -0.032338     -0.219189
Pb      11.53600     15.33940      8.71919        -0.213572      0.105962      0.040559
Pb      11.61656      3.71711     13.08525        -0.051348      0.435689     -0.277429
Pb      11.58974     15.35340     12.98894        -0.220940     -0.294122     -0.436121
Pb      11.49577      7.63939      4.31296        -0.344500      0.072199      0.495978
Pb      11.56319      7.65559     17.38164        -0.508618     -0.165630     -0.076434
Pb      11.49661      7.70177      8.71459        -0.201467     -0.625420      0.045504
Pb      11.37632      7.66089     13.08379         0.279748     -0.173141     -0.670519
Pb      11.60279     11.43696      4.26844        -0.893252      0.382185      0.829176
Pb      11.41470     11.39315     17.35007         0.190486      1.142029      0.638141
Pb      11.65110     11.47599      8.55456        -1.184711     -0.134471      1.431022
Pb      11.54966     11.45207     13.01046        -0.238054      0.270943     -0.216649
Ti       1.89046      1.88715      2.32676        -0.052531      0.275106     -0.283997
Ti       1.83420      1.83975     15.41986        -0.098100      1.060866      0.465129
Ti       1.84027     13.43675      2.18946         0.184483     -0.027941      0.890919
Ti       1.88622     13.41638     15.49601         0.056489     -0.187015     -1.527081
Ti      13.44906      1.97324      2.42493        -0.906378     -1.354200     -1.700635
Ti      13.41163      1.91505     15.39495         0.544821      0.468375      0.690100
Ti      13.36645     13.49389      2.24254         0.446768     -1.098600     -0.325046
Ti      13.33270     13.47373     15.34297        -0.784872      0.202530      1.238517
Ti       1.86419      1.90430      6.80592        -0.291100     -0.485788     -0.666731
Ti       1.78111     13.41672      6.68470         0.116846     -0.246673      0.210575
Ti      13.35424      1.90765      6.67322        -0.043571      0.048186      0.989328
Ti      13.36775     13.43096      6.69134         1.013323     -0.604243      0.547088
Ti       1.84360      1.78528     11.01226        -0.199680      0.543048      0.302865
Ti       1.90567     13.30050     10.90245        -0.745166     -0.081359      0.633098
Ti      13.42554      1.84128     11.00627         0.292805      0.448016      0.233690
Ti      13.39665     13.28341     10.97398        -0.154906      0.753929      0.271860
Ti       1.88035      5.72239      2.29974         0.560470      0.072009     -1.268798
Ti       1.94192      5.78513     15.31960        -0.287089     -1.158012      1.100018
Ti      13.48120      5.81960      2.52756         0.320619     -1.420216     -0.511578
Ti      13.47630      5.80262     15.32933        -0.636689     -1.958045     -1.117461
Ti       1.96885      5.71936      6.82691        -0.519075     -0.032058      0.680326
Ti      13.41979      5.69042      6.55068        -1.140352     -0.285774      0.816617
Ti       1.84882      5.68683     11.03909         0.789062     -0.065324     -0.392571
Ti      13.37335      5.73393     11.01531         0.225502     -1.358533      0.199280
Ti       1.89557      9.62262      2.14171        -0.668943     -0.108632      0.913580
Ti       1.93568      9.61570     15.47211        -0.744904     -0.588662      0.456517
Ti      13.38315      9.59719      2.31375         0.546030      1.193709      0.555572
Ti      13.39478      9.69492     15.32591         0.246838     -0.368299     -0.116652
Ti       1.94221      9.57633      6.64136        -0.384436      0.331302      1.240044
Ti      13.43222      9.39572      6.62723         0.348953      2.104637      1.078539
Ti       1.95960      9.47070     11.01808        -0.232599      0.605540      0.596734
Ti      13.50368      9.47144     11.13436        -0.178245      0.181465     -0.376209
Ti       5.70962      1.85366      2.29836         0.255479      1.296703      1.499477
Ti       5.70801      1.91904     15.42921        -0.281961      0.251302     -1.014292
Ti       5.79132     13.52647      2.43592        -0.027893     -0.750971     -1.280598
Ti       5.78035     13.46793     15.36950        -0.151886     -0.063923      0.009232
Ti       5.74212      1.89935      6.67958         0.498011     -0.104083     -0.418203
Ti       5.59999     13.35966      6.56564         1.205142      1.458030     -0.058012
Ti       5.66924      1.94426     10.92979         0.849947     -0.555552     -0.212380
Ti       5.71376     13.37147     11.07835        -0.494791      1.616750     -1.061259
Ti       5.72203      5.73790      2.33406         0.182420     -1.180064      0.720227
Ti       5.76268      5.73686     15.43344        -0.343117      0.467367      0.178326
Ti       5.70240      5.67969      6.71398         1.063224     -1.349076     -0.857738
Ti       5.79314      5.69546     11.04492        -1.241541     -0.047264     -0.723836
Ti       5.68111      9.56208      2.34262         0.964225      0.282666     -0.616393
Ti       5.67007      9.57028     15.45952         1.841810      0.494254      0.402119
Ti       5.68928      9.47562      6.66476         0.777898     -0.277198      0.033143
Ti       5.81563      9.62075     11.07573        -1.462258     -0.447472     -1.288136
Ti       9.57074      1.86160      2.19878        -0.176156      0.313793      1.710372
Ti       9.65582      1.97736     15.48299        -0.412306     -0.336330     -0.407519
Ti       9.59149     13.39993      2.42651        -0.093663     -0.157707      1.017054
Ti       9.59111     13.48332     15.28031        -0.491890     -0.447446      1.371663
Ti       9.56295      1.85160      6.70942        -0.228625      0.836716     -0.296189
Ti       9.54105     13.47010      6.74377        -0.369450     -0.648237     -1.773598
Ti       9.57340      1.89776     10.99876        -0.893704     -0.592482     -1.237683
Ti       9.44921     13.49550     11.03698         1.902205     -0.509132     -0.884345
Ti       9.62405      5.76118      2.31758        -1.192177     -1.523484     -1.191044
Ti       9.58274      5.71698     15.52481         0.537791      0.561973      0.390131
Ti       9.50403      5.69287      6.63985         0.314509     -0.297837      1.642896
Ti       9.57811      5.66769     11.02470         0.846334      0.527378     -2.347426
Ti       9.55052      9.52201      2.31283        -0.382646      1.316066      0.584014
Ti       9.56558      9.58484     15.42109        -0.389979      0.628939     -0.476611
Ti       9.54158      9.62041      6.80105         0.273057     -0.255894     -0.229891
Ti       9.62060      9.63392     11.02157         0.958277     -0.126772     -1.501331
O       1.79252      2.00140      0.60497         0.271989     -0.379604     -0.736029
O       1.86221      1.67560     13.64616         0.329514      0.525934      0.037357
O       1.84920     13.37427      0.41522        -0.055893     -0.031040     -0.057523
O       1.75637     13.47663     13.65190         0.663841     -0.476005      1.829677
O      13.46837      2.01982      0.62249        -0.270167      0.198830      1.071919
O      13.51657      1.85654     13.63469        -0.546814     -0.093713     -0.213536
O      13.40270     13.51147      0.46213        -0.275095     -0.352085      0.742794
O      13.23642     13.46442     13.59622         0.200154      0.167759     -0.025189
O       1.93066      1.86256      5.01282        -0.455989     -0.117035      0.525837
O       1.86203     13.52984      4.88441        -0.330128     -0.301134      0.861313
O      13.26781      1.82420      4.94889         0.424586      0.063075     -0.997316
O      13.41749     13.43412      4.96465         0.138389     -0.060018     -0.749277
O       1.82201      1.88282      9.29300         0.175417     -0.043224     -0.866170
O       1.78331     13.21663      9.15174         0.587679      0.253724      1.106232
O      13.42146      1.86637      9.25937         0.023276     -0.187961      0.119892
O      13.42008     13.30217      9.18459         0.170183      0.197297      1.012696
O       1.89111      5.72831      0.43897        -0.058939     -0.033647      2.151653
O       1.84359      5.75893     13.55383         0.487520      0.124401      0.304289
O      13.53178      5.63712      0.71819        -0.398118      0.614633      0.540687
O      13.41918      5.68730     13.54645        -0.091032      0.329370      0.870300
O       1.82880      5.80992      5.13484         0.338473     -0.300681     -1.485793
O      13.39158      5.70700      4.76521         0.300265      0.032223      0.668192
O       1.74770      5.66864      9.23782         0.272912      0.246318      0.815264
O      13.38897      5.63438      9.23446         0.118834      0.523289      0.871659
O       1.79131      9.65505      0.36822         0.314144     -0.392282      1.289224
O       1.83382      9.69564     13.72262         0.355283     -0.480395      0.498374
O      13.39719      9.61373      0.54210        -0.046007     -0.423488      0.620865
O      13.33887      9.52794     13.56151         0.048353      0.007299      0.527213
O       1.92618      9.53598      4.92271        -0.134142     -0.068988     -0.851304
O      13.42729      9.63695      4.90730        -0.158393     -0.495861     -0.363703
O       1.96413      9.38638      9.27476         0.107973      0.381511     -0.270759
O      13.49651      9.52773      9.38116        -0.185801     -0.383736     -0.084197
O       5.62920      1.92475      0.56479         0.344617     -0.320095     -0.582624
O       5.53743      2.08389     13.62487         0.239081     -0.707849      1.443331
O       5.91054     13.42983      0.63074        -0.431285     -0.063393      0.731800
O       5.59990     13.47076     13.63796         0.232314      0.015343     -0.547025
O       5.60821      1.85138      4.85803         0.275728      0.403615      1.074103
O       5.62864     13.48571      4.79485        -0.072529     -0.373974      0.474631
O       5.77390      1.84979      9.12287        -0.425316      0.009139      1.537521
O       5.58981     13.41141      9.20317         0.663487     -0.518392      1.880477
O       5.61066      5.55546      0.60261         0.321724      0.705142     -0.590610
O       5.71599      5.91418     13.70475         0.044458     -0.561834     -0.728453
O       5.62741      5.59292      4.88795         0.355379      0.356275      0.733333
O       5.91009      5.81429      9.30669        -0.335097     -0.173542      0.356112
O       5.79988      9.77865      0.57890        -0.438012     -0.441179      0.445386
O       5.88054      9.49105     13.72718        -0.336485      0.029617     -0.774028
O       5.67986      9.27573      4.95095         0.238001      0.806490     -1.027559
O       5.67485      9.66515      9.23318         0.365996     -0.284004      1.877148
O       9.54635      1.90357      0.45490         0.061028     -0.078151     -0.664054
O       9.57850      2.03807     13.70003        -0.202845     -0.162737      0.338109
O       9.60281     13.35288      0.71952        -0.106806     -0.134902     -1.763285
O       9.54773     13.45474     13.56783         0.390701      0.242557     -0.844764
O       9.58344      1.75234      4.91399        -0.244522      0.382496      0.880469
O       9.30081     13.44492      4.91178         1.299719      0.121996      1.701515
O       9.45073      1.88900      9.20264         0.477115     -0.139348      0.834061
O       9.52764     13.49678      9.21226        -0.416394      0.073309      1.241089
O       9.46954      5.80493      0.52011         0.666467     -0.056945      0.979358
O       9.67663      5.58090     13.77234        -0.344227      0.348505     -0.720159
O       9.31576      5.69271      4.88961         0.512309      0.085584     -0.737486
O       9.60039      5.53522      9.17133        -0.216123      0.584221      2.379737
O       9.64959      9.71119      0.56666        -0.122370     -0.325430     -0.305350
O       9.54312      9.61074     13.63000         0.088917     -0.535330      0.396906
O       9.48427      9.57093      5.06466         0.132788     -0.286777     -0.139057
O       9.73982      9.67723      9.22141        -0.750248     -0.483812      1.033745
O       3.71685      1.76491      2.73989         0.841098      0.464183     -0.307738
O       3.76407      1.78541     15.97096        -0.132324      0.616113     -1.045140
O       3.77591     13.54112      2.63806        -0.259253     -0.813337     -0.072589
O       3.83816     13.39946     15.76587        -1.402990      0.393480      0.284342
O      15.34450      1.83857      2.79457        -0.736379      0.223127      0.415494
O      15.32936      1.85666     15.86084        -0.148766      0.389519     -0.408532
O      15.31454     13.38252      2.64576        -0.278622     -0.140344      0.085734
O      15.18101     13.43011     15.75629         1.170360     -0.074224     -0.223869
O       3.84402      1.85916      7.12366        -1.208117      0.193309      0.060480
O       3.80855     13.34203      7.08358        -0.670126      0.522363     -0.378988
O      15.26006      1.88574      7.09383         0.727548      0.169837     -0.215015
O      15.29549     13.29896      7.14346         0.113465      0.332214     -0.461169
O       3.75466      1.91140     11.34442        -0.158422     -0.516193      0.454466
O       3.83098     13.19284     11.46869        -0.825044      0.669602     -0.408203
O      15.35028      1.91965     11.48950        -0.478218     -0.496804     -0.089507
O      15.33845     13.33462     11.52318        -0.345717     -0.072103     -0.878188
O       3.79541      5.73823      2.77068        -0.919459     -0.128993     -0.148162
O       3.85572      5.77166     15.88114        -0.421672     -0.278809     -0.694223
O       0.03959      5.66324      2.78252        -0.629928      0.386896      0.133334
O      15.35631      5.73154     15.78153        -0.020841      0.249671     -0.278282
O       3.90354      5.61579      7.23276        -1.288355      0.296673     -0.054341
O      15.30403      5.67055      7.14671        -0.076973      0.476121     -0.827044
O       3.80657      5.83436     11.20475        -0.278189     -0.111909      0.879245
O       0.02982      5.85280     11.54786        -1.072490     -0.551344     -0.524307
O       3.73323      9.53389      2.67077         0.550307      0.326595     -0.321443
O       3.86786      9.61381     15.87377        -1.175478     -0.238115     -0.239425
O      15.28409      9.72039      2.77397         0.167616     -0.718906     -0.536153
O      15.25658      9.61803     15.86044         0.049775     -0.315936     -0.559839
O       3.84974      9.50053      6.99904        -0.202773      0.046982      0.502075
O       0.07475      9.49514      7.00640        -1.383998     -0.233635      0.103013
O       3.85627      9.51177     11.49285         0.713566      0.551849      0.046792
O       0.03829      9.48755     11.45761        -1.065382     -0.236036      0.154192
O       7.66748      1.83367      2.69611        -0.404258      0.062996     -0.285890
O       7.60960      1.86487     15.79669         0.029489      0.566814     -0.242291
O       7.69739     13.50236      2.88901        -1.336391     -0.595138     -0.552538
O       7.63126     13.40927     15.66046         0.995713      0.384754      0.413539
O       7.66638      1.87912      7.11130         0.102777     -0.156738     -0.550766
O       7.56695     13.46577      6.96085         0.032411     -0.401334      0.679865
O       7.57324      1.87002     11.44295        -0.386582      0.648574      0.081979
O       7.64758     13.44034     11.51079        -0.984871     -0.292133     -0.410266
O       7.63870      5.67828      2.67869        -0.007605      0.314091      0.212879
O       7.60873      5.83395     15.80201         0.934589     -0.310040      0.151802
O       7.60999      5.55831      7.23588         0.330300      0.973603     -0.943715
O       7.68431      5.55998     11.43454         0.250625      0.587814      0.331129
O       7.67997      9.44656      2.58237        -0.902014      0.172475      0.535130
O       7.65987      9.63073     15.89776         0.312359     -0.083465     -0.227466
O       7.62098      9.52096      7.22934         0.026033      0.485025     -0.575016
O       7.68636      9.59580     11.47659        -0.238487     -0.093186     -0.286026
O      11.37826      1.94609      2.75124         1.358431     -0.187567     -0.193100
O      11.49326      1.99531     15.69869        -0.015624     -0.023900      0.391887
O      11.47486     13.36344      2.88076         0.016064     -0.111125     -0.483726
O      11.42321     13.36181     15.93723         0.270350      0.999380     -0.787946
O      11.48952      1.92808      7.11436        -0.100546     -0.656262      0.148959
O      11.53778     13.42168      7.06050        -1.240898     -0.052166     -0.086242
O      11.41470      1.77577     11.30463         1.400693      0.080940      0.469079
O      11.51834     13.53298     11.37479        -0.481165     -0.162879      0.028688
O      11.50627      5.62720      2.81269         0.219705      0.812227     -0.511707
O      11.53256      5.76030     15.85104        -0.302219      0.357009      0.193850
O      11.46478      5.70405      7.01491         0.549835      0.312953     -0.407774
O      11.47521      5.63571     11.39032        -0.593771     -0.241461      0.300956
O      11.44263      9.51524      2.83006         0.809984     -0.098645     -0.376487
O      11.53946      9.60247     15.85966        -0.224469     -0.581049     -0.480010
O      11.53445      9.49434      7.22460        -0.112958      0.039024     -1.109684
O      11.46128      9.52660     11.50476         0.059069     -0.028568      0.209661
O       1.86020      3.80550      2.80136         0.119902      0.404368     -0.139513
O       1.85848      3.76967     15.77294         0.498338      0.419000     -0.652366
O       1.71313     15.31777      2.64399         0.642431     -0.424924     -0.145372
O       1.71713     15.29754     15.86962         1.056531     -0.450454     -0.160028
O      13.47584      3.72558      2.90291        -0.306328      1.532648     -0.067649
O      13.30806      3.84965     15.79775         0.950786      0.186443     -0.211877
O      13.22292     15.26935      2.62331         0.637652      1.499821      0.543787
O      13.34452      0.12555     16.01253        -0.420685     -1.493852     -1.133561
O       1.92164      3.78522      7.22516        -0.126137     -0.346208     -0.508997
O       1.79226     15.27193      7.25108         0.410933      0.495137     -0.650080
O      13.32876      3.83816      7.18552         0.412221     -0.087374     -1.227816
O      13.46220     15.30323      7.17346        -0.567443      0.350606     -0.489223
O       1.82535      3.74868     11.58643         0.607937      0.805033     -0.673487
O       1.78172     15.23178     11.37747         0.790853     -0.313894     -0.177054
O      13.43097      3.75964     11.48777         0.016947      0.115155     -0.132594
O      13.46752     15.30252     11.42451         0.020839     -0.041275     -0.139435
O       1.80343      7.69213      2.70349         0.005311      0.012592     -0.479409
O       1.95259      7.57050     15.83652        -0.349818      1.633783     -0.395434
O      13.39828      7.66558      2.90189         0.271322      0.434245     -0.969174
O      13.42859      7.59354     15.76355        -0.148836      1.809138      0.247266
O       1.96732      7.62870      7.13829         0.040382     -0.088258      0.103515
O      13.42518      7.58744      7.08183         0.070469     -0.294590     -0.395027
O       1.90230      7.66248     11.50436        -0.005549     -0.699526      0.116536
O      13.24526      7.51470     11.46027         0.529074      1.717021      0.212312
O       1.89053     11.49377      2.85820         0.109596      0.223839     -1.221328
O       1.88474     11.45036     15.91643         0.046624      1.301838     -0.785853
O      13.28032     11.54757      2.76533         0.670399     -1.169010     -0.660258
O      13.27429     11.59171     15.77413         0.633676     -1.098807     -0.601285
O       1.87460     11.49049      7.06373         0.397840     -0.521134     -0.325439
O      13.43632     11.39341      7.23144         0.386371     -0.166003     -1.418262
O       1.78853     11.39668     11.55834         1.115782      0.706958     -0.985528
O      13.30989     11.39314     11.44998         0.504451      0.898309     -0.197717
O       5.68293      3.74005      2.77961        -0.195112      0.130385     -0.131624
O       5.72971      3.84238     15.93506        -0.051701     -0.382995     -0.894546
O       5.65280     15.35920      2.80604         0.627748     -0.072494     -0.471076
O       5.71432      0.02974     15.86316        -0.160838     -0.372267     -0.290419
O       5.75879      3.76057      7.18507        -0.429604     -0.051825     -0.314304
O       5.72540      0.00520      7.02910        -0.364194     -1.231457      0.029703
O       5.50790      3.79509     11.39789         0.685075      0.529126     -0.082207
O       5.66027     15.34071     11.42685        -0.106475     -0.651075     -0.090480
O       5.64675      7.61850      2.69415         0.249942      0.578972     -0.208752
O       5.80009      7.68220     15.94780        -0.812927      0.032481     -0.267691
O       5.74058      7.51511      6.97990         0.208607      1.490004      0.706230
O       5.76518      7.63709     11.57974         0.470819      0.691761     -0.692953
O       5.71926     11.49631      2.85550        -0.053273     -0.374914     -0.538813
O       5.70935     11.54832     15.75824         0.021615     -0.422187      0.161591
O       5.66739     11.43289      6.98942         0.369360      0.430955     -0.305027
O       5.78149     11.51930     11.65663         0.083893     -1.021494     -0.857958
O       9.56732      3.80090      2.71392        -0.378702      0.256267     -0.027919
O       9.52134      3.89593     15.95497         0.064720     -0.523463     -0.414161
O       9.60277     15.27978      2.69423         0.114780      1.033355     -0.027187
O       9.63588      0.01655     15.80509        -0.392403     -0.181547     -0.242980
O       9.61418      3.81750      7.09272        -0.316449     -0.784964     -0.490533
O       9.62751     15.33034      7.19178        -0.184826     -0.306183     -0.292374
O       9.56978      3.69469     11.48847         0.057131      1.563784      0.103730
O       9.37442      0.03087     11.49575         0.821562     -0.749727     -0.161575
O       9.58843      7.60938      2.73884         0.296196      0.132123      0.219753
O       9.61894      7.76955     16.00544        -0.085620     -0.881842     -0.782245
O       9.52693      7.54637      7.09815        -0.139563      1.206542      0.222675
O       9.61998      7.63908     11.21762        -0.509599     -0.661805      0.714780
O       9.52116     11.42370      2.89899         0.021771     -0.158090     -0.551442
O       9.59794     11.53284     15.69395        -0.114022     -0.358589      0.422734
O       9.53909     11.55123      7.16692        -0.021855     -0.284767     -0.451244
O       9.62638     11.55143     11.46224        -0.397120     -0.033308     -0.090556
