  # total energy = -7878.11634111 
CRSYTAL
PRIMVEC
    15.3600000000000000    0.0000000000000000    0.0000000000000000
     0.0000000000000000   15.3600000000000000    0.0000000000000000
     0.0000000000000000    0.0000000000000000    17.440000000000000
PRESSURE
1.57526 1.484 7.24357 -0.203675 -0.154017 -0.023146
PRIMCOORD
320 1
Pb       3.80050      3.85568      4.41797         0.096255     -0.578827     -0.311018
Pb       3.98216      3.76995     17.35715        -0.899928     -0.039824     -0.446456
Pb       3.79280     15.31639      4.38474         0.256656     -0.232433     -0.819441
Pb       3.91328      0.03423     17.39749        -1.324038     -0.512996     -0.505235
Pb      15.34073      3.82302      4.44605         0.108457     -0.274993     -0.636289
Pb       0.14768      3.86181      0.06691        -0.370512     -0.572090     -0.488824
Pb       0.05621     15.28985      4.33414        -0.024671      0.208065     -0.532750
Pb      15.08720     15.28827      0.02624         0.997779      0.166365     -1.005762
Pb       3.74152      3.98073      8.54642         0.151345     -1.480544      1.053870
Pb       3.82692     15.34364      8.84935         0.189541      0.089176     -0.915586
Pb      15.03188      3.93883      8.62660         0.828908     -0.144016     -0.303062
Pb      15.26874      0.19352      8.70792        -0.446984     -0.780654     -0.366705
Pb       3.88129      3.75505     12.93253        -0.214862     -0.203834     -0.284927
Pb       3.73341     15.21233     12.92853         0.100944      0.723102      0.220524
Pb      15.35021      3.66641     13.13511        -0.089563      0.137979     -0.714255
Pb       0.03079      0.02388     12.90710        -0.425684     -0.598854      0.764361
Pb       3.94773      7.67456      4.25333        -1.096580      0.478454      0.551380
Pb       3.67139      7.63832      0.04728         0.760291     -0.396047     -1.112140
Pb       0.22559      7.70245      4.30289        -0.849893     -0.131862      0.175962
Pb      15.30144      7.79347     17.33617        -0.350672     -0.486759     -0.216068
Pb       3.97423      7.61873      8.72594        -0.428323      0.771017     -0.134859
Pb      15.34044      7.63436      8.68249        -0.263884     -0.142692     -0.013066
Pb       3.80831      7.62698     13.06929         0.196647     -0.033048     -0.445580
Pb       0.08561      7.69547     13.12584        -0.570767     -0.554876     -0.648904
Pb       3.61596     11.48555      4.31241         0.996399      0.097617     -0.263123
Pb       4.03832     11.29445     17.31149        -1.650044      1.141485     -0.174565
Pb       0.18001     11.67392      4.16153        -1.202415     -0.447428      0.270082
Pb      15.24736     11.46931     17.30010         0.429461      0.234095     -0.018634
Pb       3.77963     11.61019      8.72356         0.276226     -0.535397     -0.558642
Pb      15.34234     11.33747      8.67320        -0.163999      0.741367     -0.109476
Pb       3.97866     11.49174     12.96272        -0.565147      0.022142      0.161960
Pb       0.14948     11.46912     13.15898        -0.718391      0.827007     -0.356311
Pb       7.70139      3.71193      4.41963         0.099573     -0.057336     -0.738065
Pb       7.68754      3.90377     17.29529        -0.108140     -0.300080     -0.148700
Pb       7.69386      0.03560      4.35132        -0.158555     -0.258958     -0.296627
Pb       7.37744     15.32311     17.32139         1.411868      0.270802      0.210074
Pb       7.65498      3.81742      8.69314        -0.107795     -0.114970     -0.046682
Pb       7.67878     15.24822      8.57672        -0.101048      0.772396      0.598610
Pb       7.83685      4.00187     13.28485        -0.293273     -0.595873     -1.009953
Pb       7.68572      0.15692     13.02387        -0.187316     -0.024962     -0.193197
Pb       7.53328      7.49193      4.27031         1.098691      0.524589     -0.852074
Pb       7.61945      7.64537     17.43820         0.043666      0.031869     -0.538098
Pb       7.59112      7.88341      8.62084         0.250428     -0.783279      0.439703
Pb       7.61270      7.60474     12.96526        -0.163124      0.331337      0.206937
Pb       7.69228     11.38028      4.37818         0.040459      0.371518     -0.546647
Pb       7.52609     11.65642     17.31530         1.080307     -0.507191      0.018261
Pb       7.70620     11.48263      8.68607        -0.197498      0.035567      0.183731
Pb       7.88920     11.65579     13.06807        -0.806604     -0.913817     -0.612806
Pb      11.58614      3.75408      4.37076        -0.673563      0.031970     -0.518029
Pb      11.56046      3.81578      0.05219         0.263858     -0.029564     -0.059560
Pb      11.59170     15.34496      4.25856        -0.537382     -0.090579      0.207650
Pb      11.38879     15.27667     17.22505         0.118533      0.231739      0.620795
Pb      11.57359      4.07369      8.68556        -0.454699     -0.587759     -0.183739
Pb      11.46244     15.27297      8.64083         0.347996      0.592394     -0.407840
Pb      11.54786      3.68584     13.31468         0.015437      0.297347     -1.618029
Pb      11.42234     15.33212     13.04708         0.457407      0.336476     -0.544892
Pb      11.58807      7.68997      4.20405        -0.877841     -0.165409     -0.160228
Pb      11.41330      7.57801      0.01048         0.221278      0.250551      0.532878
Pb      11.56448      7.69649      8.64178        -0.175565     -0.740547      0.607614
Pb      11.38416      7.71074     13.01659         0.658220     -0.527137     -0.286838
Pb      11.57466     11.36960      4.40622        -0.301624      0.421535     -0.870158
Pb      11.35228     11.49500     17.33774         0.167428     -0.445059      0.575630
Pb      11.50234     11.51761      8.86755         0.011863     -0.003367     -1.008592
Pb      11.46375     11.43597     12.95746         0.285345      0.179041     -0.249081
Ti       1.88637      1.92144      2.37957         0.211910     -0.807787      0.099680
Ti       1.77441      1.80487     15.44336         0.754318      0.127355      1.671299
Ti       1.91220     13.35559      2.08181         1.022811      1.343632      1.186540
Ti       1.86889     13.34515     15.42968         0.364190      0.912988      0.617643
Ti      13.40336      1.85101      2.23400        -0.032265      0.858665      1.316688
Ti      13.36921      1.86789     15.41338         1.078669     -0.004960      1.388856
Ti      13.34213     13.43280      2.20695         0.252131     -0.315910      2.507880
Ti      13.29000     13.30926     15.33983         1.877336      0.562798      1.650118
Ti       1.88918      1.88836      6.75190        -0.433158      0.343687      1.886143
Ti       1.83736     13.50261      6.78208         0.273170     -0.647740      2.185852
Ti      13.33671      1.90980      6.56405        -0.505540     -0.862718      2.701087
Ti      13.47164     13.36019      6.68035        -0.235502      0.468481      2.037523
Ti       1.84092      1.87182     10.91167         0.933443      0.864663      2.348192
Ti       1.87200     13.36846     10.94438        -0.541453      0.226395      2.734065
Ti      13.35084      1.90756     10.92951        -0.777767      0.413074      2.869332
Ti      13.40497     13.47127     11.02214         0.182087     -0.153943      3.533394
Ti       1.92962      5.66773      2.30913         0.079255      0.541648      1.706107
Ti       1.88749      5.71933     15.42122         0.535158     -0.759349      1.326713
Ti      13.49869      5.69681      2.34430        -0.941896      0.403281      1.784265
Ti      13.46166      5.71196     15.49791        -0.467602     -0.311757      2.122652
Ti       1.97709      5.80638      6.71604        -1.353397     -0.632826      0.570445
Ti      13.40379      5.79380      6.40268        -0.301080      0.105844      2.408810
Ti       1.84074      5.68067     11.05469         0.260309      0.189567      2.658441
Ti      13.36468      5.79706     11.20464        -0.101687     -0.474697      0.924511
Ti       1.85074      9.52697      2.09911         0.640200      0.722422      3.366716
Ti       1.86583      9.56531     15.32184         1.037854      0.660447      2.317697
Ti      13.47218      9.63601      2.27954        -1.055696     -0.257666      1.044455
Ti      13.29286      9.51949     15.30363         0.591364      0.765063      2.116019
Ti       1.83444      9.58522      6.64026         1.265238      0.306748      3.284953
Ti      13.39873      9.51622      6.64014         0.286563      0.674144      2.833643
Ti       1.84852      9.56419     11.02564         0.817077     -0.607390      1.955225
Ti      13.47809      9.63652     11.09617        -1.602887     -0.494525      2.821258
Ti       5.74615      1.98658      2.30708        -0.025832     -1.294667      2.997495
Ti       5.69673      1.86370     15.25489        -0.028780      0.909171      0.554607
Ti       5.79379     13.42381      2.35141        -0.615561      0.283226      2.529002
Ti       5.70890     13.37611     15.24424        -1.036918      0.633042      0.978063
Ti       5.73770      1.87181      6.75422        -0.458131      0.029528      2.262969
Ti       5.80224     13.37084      6.75130        -1.427625      0.652337      0.681681
Ti       5.81753      1.92228     10.92999        -0.616046      0.014023      1.067825
Ti       5.80318     13.46493     11.06965         0.090843     -0.495743      1.206016
Ti       5.69315      5.63835      2.30210         1.221162      0.729433      2.528160
Ti       5.69721      5.77253     15.30721         0.488506      0.089899      2.197154
Ti       5.79157      5.71097      6.57931        -0.152062     -0.238474      1.862045
Ti       5.70155      5.70479     10.97823        -0.079403      0.041337      2.672105
Ti       5.72576      9.64229      2.25994        -0.152938      0.177680      4.360272
Ti       5.76491      9.52943     15.29855         0.050420     -0.895281      1.860960
Ti       5.70502      9.61143      6.63485        -1.333242      0.573406      2.022859
Ti       5.70212      9.55621     11.03610         0.774445      0.474561      1.018699
Ti       9.59194      1.78267      2.12914        -0.925267      1.529004      1.937443
Ti       9.55581      1.90809     15.41394        -0.697386     -0.652281      0.929422
Ti       9.53464     13.44664      2.33467         0.149602     -1.048365      0.919127
Ti       9.58599     13.42177     15.27485        -0.672443     -0.089397      2.257486
Ti       9.58162      1.96166      6.71490         0.373166     -0.327623      2.053999
Ti       9.61227     13.42851      6.62439         0.375694     -0.403567      0.823177
Ti       9.54557      1.92943     10.89360         0.324295      0.612906      1.605636
Ti       9.56904     13.53635     10.92754        -0.044326     -0.653051      2.106631
Ti       9.66463      5.56470      2.41702        -0.754070      0.878384      1.461732
Ti       9.67767      5.76953     15.38657        -1.254440     -0.327544      1.522033
Ti       9.48915      5.76105      6.62158         1.202976      0.583354      0.881151
Ti       9.58601      5.70266     11.04674         0.342197     -0.516868      1.917522
Ti       9.55141      9.55798      2.23468        -0.030592     -0.314590      1.796580
Ti       9.56420      9.52036     15.35870        -0.776241      0.507212      1.406527
Ti       9.62584      9.55228      6.67815        -0.144310      0.311963      1.062414
Ti       9.54471      9.54152     11.05015        -0.239674      0.141880      1.104461
O       1.84857      1.98324      0.64874         0.201253     -0.065577     -0.352953
O       1.74725      1.80966     13.73239        -0.058534      0.394203     -1.608707
O       2.05267     13.43683      0.37923        -0.356976      0.033362      0.137473
O       1.85376     13.35318     13.66857         0.167307      0.022727     -0.668498
O      13.36411      1.75809      0.49944         0.195325      0.026683     -0.447496
O      13.43580      2.00954     13.70598         0.086389     -0.087248     -1.115456
O      13.37857     13.52990      0.50442        -0.190398     -0.255585     -1.199828
O      13.23471     13.22049     13.65845        -0.002113      0.291927     -1.513540
O       1.88804      1.87774      5.04468        -0.033873     -0.167749     -2.007074
O       1.70631     13.50396      5.06986         0.153232      0.011919     -1.973123
O      13.26383      2.00338      4.85373         0.210512     -0.494720     -1.324517
O      13.45742     13.40021      4.98656         0.329115     -0.021568     -1.811929
O       1.85931      1.93653      9.22429        -0.359808     -0.001013     -1.249253
O       1.84301     13.36254      9.27103         0.240913      0.038223     -1.682170
O      13.32113      1.88988      9.22634         0.132837      0.301141     -1.399481
O      13.32816     13.46878      9.38474        -0.076772     -0.143328     -3.822447
O       2.10225      5.64281      0.61001        -0.532484      0.439998     -1.244656
O       1.89086      5.65731     13.72357        -0.122269      0.191838     -1.552869
O      13.38313      5.66957      0.64494         0.066757      0.092503     -1.830735
O      13.21703      5.73111     13.84797         0.341577     -0.357147     -2.534597
O       1.95245      5.82573      5.00205        -0.022613     -0.092782     -1.190230
O      13.33679      5.68793      4.68690         0.411696      0.150904     -0.279929
O       1.80269      5.69950      9.38377         0.014659      0.099974     -2.917695
O      13.36692      5.73135      9.46491         0.049639     -0.087413     -1.198123
O       1.96099      9.69302      0.42703        -0.122800     -0.856563     -1.824919
O       1.88994      9.63050     13.61809        -0.318640     -0.251916     -1.502868
O      13.54807      9.76431      0.57689        -0.411277     -0.629499     -1.004749
O      13.33099      9.64660     13.62507         0.069557     -0.083881     -1.705739
O       1.92744      9.58085      4.96745        -0.473076     -0.057993     -2.508679
O      13.39155      9.56121      4.97445        -0.074504      0.211152     -2.802863
O       1.84007      9.45878      9.33362        -0.168817      0.247829     -1.072189
O      13.53352      9.54745      9.43694        -0.032840     -0.226854     -3.492852
O       5.77235      2.03616      0.63009        -0.296471     -0.264173     -2.856064
O       5.81643      1.88539     13.53140        -0.348464     -0.042964     -0.481824
O       5.76138     13.43909      0.64541         0.213568      0.120449     -2.475873
O       5.65075     13.35056     13.53215         0.239315      0.481938     -0.673435
O       5.78390      1.99516      5.07686        -0.073474     -0.249375     -2.425642
O       5.72974     13.36029      5.05683         0.123096     -0.173512     -1.354668
O       5.87275      1.74942      9.19028        -0.420051      0.581392     -0.053357
O       5.66879     13.39233      9.37033         0.261373      0.211912     -1.880618
O       5.73528      5.58135      0.62861         0.004094      0.167336     -2.362848
O       5.72211      5.83789     13.62214        -0.243207     -0.204869     -1.812005
O       5.68839      5.59775      4.87152         0.143327      0.523072     -1.098775
O       5.74374      5.79562      9.30527        -0.018583      0.108671     -2.929414
O       5.79495      9.71038      0.61103         0.072912     -0.434144     -3.629050
O       5.68266      9.37867     13.64100         0.137607      0.330800     -2.205912
O       5.57119      9.74754      4.94408         0.343852     -0.066488     -1.435933
O       5.70557      9.58861      9.29920         0.137184     -0.245465     -0.973292
O       9.53121      2.05951      0.42846         0.069220     -0.434382     -1.429993
O       9.45940      1.73217     13.70592         0.301121      0.187761     -1.172091
O       9.49266     13.35775      0.61022         0.043294     -0.132065     -1.154581
O       9.62278     13.57415     13.58210         0.043878     -0.428672     -1.529010
O       9.57572      1.85403      5.01271        -0.156709      0.016188     -1.354967
O       9.48168     13.56056      4.90650         0.384955     -0.425255     -0.494192
O       9.45830      1.91081      9.15738         0.409389      0.359620      0.029373
O       9.62400     13.41114      9.23179        -0.049927     -0.322158     -1.698349
O       9.71689      5.64001      0.71220        -0.230679     -0.224254     -2.037461
O       9.63276      5.72486     13.68354         0.006792      0.363418     -1.311551
O       9.48094      5.84648      4.89766        -0.025075     -0.368902     -0.561525
O       9.75659      5.75826      9.35350        -0.427437     -0.347347     -1.391950
O       9.55605      9.57732      0.50766        -0.045208      0.136863     -0.600806
O       9.51317      9.60808     13.64295         0.346604     -0.389905     -0.855363
O       9.61728      9.52358      4.97419        -0.134432      0.170457     -1.212312
O       9.48841      9.58221      9.33053        -0.041375     -0.103919     -1.305140
O       3.85604      1.85816      2.84254        -0.378706      0.546187     -0.026962
O       3.82509      2.01334     15.75404        -0.142832     -0.934122      0.142716
O       3.77253     13.34229      2.80546        -0.021512      0.476351     -0.290529
O       3.80189     13.47781     15.79808         1.441314     -0.169017     -0.262573
O      15.31610      2.04023      2.77995         0.114595     -0.810098     -0.089376
O      15.27349      1.85114     15.89249         0.193209      0.380019      0.161061
O      15.31995     13.48516      2.65984         0.777536     -0.164944     -0.289711
O      15.34088     13.34728     15.77314        -0.871870     -0.060507      0.129767
O       3.70871      1.79267      7.19589         1.462981      0.559654     -0.204770
O       3.73821     13.48005      7.13097         0.669624      0.056037      0.340387
O      15.19978      1.95284      7.04458         0.451432     -0.059761      0.091711
O      15.32327     13.42224      7.28261        -0.370799      0.019188     -0.347973
O       3.75727      1.91256     11.43565         0.339211     -0.480482     -0.319837
O       3.84928     13.39474     11.44402        -1.076519      0.000869     -0.257182
O      15.28077      1.84851     11.45006         0.631609      0.595272     -0.490005
O      15.28611     13.43219     11.46190         0.769617      0.118658     -0.203269
O       3.82536      5.74499      2.77303        -0.603895     -0.311773      0.031910
O       3.84565      5.88781     15.80829        -0.386041     -0.750306      0.138964
O      15.34385      5.71106      2.80810         0.651937      0.207462     -0.293522
O      15.31297      5.80602     15.91254         0.778307     -0.300848     -0.046784
O       3.86801      5.74894      7.13280        -0.231771      0.340838     -0.438040
O      15.25285      5.67972      6.92173         0.033427      0.032894      0.293979
O       3.81634      5.77052     11.41442        -0.562345     -0.220443      0.289606
O      15.28329      5.79246     11.52687         0.629513     -0.271468      0.397765
O       3.69065      9.58237      2.68298         0.746162      0.288947     -0.228693
O       3.79497      9.51841     15.65030         0.564507      0.097583      0.742042
O      15.31223      9.63317      2.64862         1.238387     -0.488498      0.274488
O      15.32316      9.57695     15.77362         0.148674      0.088065     -0.227785
O       3.73636      9.60912      7.07350         0.859249     -0.477097      0.309980
O      15.30823      9.49301      7.12273         0.469382      0.233360     -0.088989
O       3.84583      9.57228     11.47922        -1.024234      0.332367     -0.194899
O      15.23745      9.47233     11.59043         2.702053      0.155450      0.019493
O       7.61602      1.91804      2.59310         0.457776     -0.177583      0.721520
O       7.58294      1.82763     15.72339         0.299168      0.135825      0.475983
O       7.71895     13.47117      2.85770        -0.962965     -0.416345     -0.204102
O       7.65411     13.46146     15.67751        -0.648720     -0.360184      0.168739
O       7.65817      1.94420      7.21810         0.173790      0.050978     -0.765481
O       7.67836     13.34182      7.14102         0.364966     -0.124225     -0.254845
O       7.65282      2.02223     11.45147         0.401257     -0.492414     -0.205054
O       7.72628     13.40733     11.51644        -0.268231      0.140811     -0.390686
O       7.67197      5.72461      2.71927        -0.969637     -0.067609      0.211106
O       7.69009      5.80212     15.72670        -0.318596     -0.499442      0.407846
O       7.63038      5.60919      7.04330         0.115398      0.647359     -0.129613
O       7.51691      5.73304     11.54517         2.039999     -0.438367     -0.212257
O       7.58723      9.51462      2.73980         0.311892      0.061229      0.034666
O       7.70299      9.49075     15.78771        -0.797849      0.491003      0.170898
O       7.59021      9.70273      7.13330         0.468663     -0.426918     -0.505804
O       7.63981      9.59488     11.62853         0.099346     -0.186106     -0.787734
O      11.44131      1.81516      2.54699         0.845156      0.002682      0.335170
O      11.47093      1.89072     15.72117        -0.255860     -0.126328      0.230858
O      11.49315     13.44409      2.74630         0.128187      0.086305     -0.143199
O      11.45669     13.30359     15.88932        -0.167678      0.819536     -0.548399
O      11.42540      1.86354      7.18164         0.477597      0.025698     -0.516812
O      11.52382     13.27126      7.02847         0.032691      0.528076      0.353239
O      11.42801      1.78606     11.56518        -0.099008      0.566892     -0.728462
O      11.40184     13.44040     11.34591         0.698237      0.061880      0.543520
O      11.50773      5.63748      2.81057        -0.029073      0.179559     -0.131129
O      11.48783      5.74270     16.01360         0.342517     -0.244494     -0.444720
O      11.55941      5.90930      7.03502        -0.522983     -0.501964     -0.197565
O      11.47829      5.68039     11.61159        -0.487702      0.270663     -0.151972
O      11.48789      9.58763      2.72053        -0.055966      0.540232     -0.064452
O      11.44373      9.55503     15.72558         0.402164     -0.289747      0.376224
O      11.51022      9.39084      7.14117         0.025195      1.109898     -0.434537
O      11.48422      9.54795     11.42035        -0.526445      0.011789      0.159835
O       1.83186      3.84768      2.77663         0.656755      0.010942      0.447314
O       1.89851      3.82633     15.89698        -0.389000      0.275415     -0.123901
O       2.03847     15.35446      2.69003        -1.100344     -0.436174      0.189836
O       1.85017     15.34437     15.82166         0.392613     -0.223813      0.300312
O      13.32446      3.76063      2.74359         0.298943     -0.088689     -0.323433
O      13.44625      3.76135     15.95999        -0.232499      0.698373     -0.341648
O      13.50034      0.00586      2.80742        -0.346969     -0.442947     -0.463462
O      13.43451     15.28561     15.69329        -0.640666     -0.356174      0.335422
O       1.82971      3.82107      7.09676         0.431883      0.632410      0.064620
O       1.81794      0.01600      7.35365        -0.235757     -0.207101     -0.790319
O      13.23441      3.79068      6.99092         0.447138      1.485541     -0.167118
O      13.36401     15.35032      7.08311         0.020937     -0.369340     -0.248678
O       1.93364      3.78550     11.43046        -0.673558      0.018896      0.265374
O       1.91003     15.32512     11.40068        -0.217533     -0.342938     -0.329166
O      13.29675      3.73325     11.52874         0.553091      0.565211      0.018504
O      13.38763      0.06809     11.49115        -0.129017     -1.211313     -0.089058
O       1.90908      7.66764      2.81928        -0.031711     -0.271880     -1.242046
O       1.90673      7.61746     15.87619        -0.429182      0.988363     -0.041226
O      13.30508      7.65991      2.64130         0.814409      0.265175     -0.181521
O      13.46568      7.68047     15.78531        -0.309106     -0.073160      0.449495
O       1.85844      7.62014      7.16412         0.042551      0.291999     -0.110199
O      13.46749      7.65526      7.14451         0.211950     -0.648373     -0.602087
O       1.98310      7.66277     11.51561        -0.931655      0.169479      0.075869
O      13.31752      7.64982     11.59039         0.231525      0.030550      0.196662
O       1.93201     11.48116      2.54157        -0.756129      0.085314      0.261929
O       2.03342     11.49219     15.88033        -0.764303     -1.022484     -0.709641
O      13.43288     11.56310      2.74830        -0.106074     -0.059976     -0.034083
O      13.42301     11.45630     15.87203        -0.531922     -0.233373     -0.376847
O       1.94220     11.50644      7.12900        -0.871131     -0.241243     -0.200760
O      13.49642     11.43602      7.17249        -0.541856     -0.132960     -0.096575
O       1.77273     11.49597     11.50497         0.538197     -0.517993     -0.723284
O      13.43231     11.50874     11.40194        -0.487039      0.436420      0.135275
O       5.67484      3.81147      2.86756         0.137702      0.103225     -0.332926
O       5.70972      3.80256     15.69982         0.439994      0.620357      0.072052
O       5.81649     15.26443      2.83540        -0.726135      1.173102     -0.164314
O       5.65824     15.32751     15.82266         0.185124     -0.135819     -0.543649
O       5.71320      3.82807      7.05343        -0.341629      0.202927      0.478336
O       5.75331     15.35956      7.09983         0.139531     -1.001995      0.117805
O       5.70145      3.80565     11.26348        -0.396745     -0.198970      0.285040
O       5.76008      0.00637     11.37064        -0.046201      0.056015      0.362853
O       5.55964      7.70999      2.72780         1.251735     -0.698142     -0.667434
O       5.73036      7.66599     15.83077         0.251413      0.082517      0.462175
O       5.72588      7.66328      6.99914         0.255245      0.005897     -0.049493
O       5.72601      7.68335     11.36199        -0.061172     -0.183144      0.332661
O       5.74482     11.56292      2.61811         0.125534     -1.199244      0.697555
O       5.74991     11.49751     15.63274         0.102625     -0.207495      0.352132
O       5.67972     11.51775      7.27239        -0.018287     -0.203564     -0.435773
O       5.75439     11.54434     11.44257         0.199799     -0.698575      0.213478
O       9.51412      3.66625      2.86672         0.455110      0.548664     -0.399796
O       9.51809      3.80120     15.58746         0.097289      0.469839      0.567405
O       9.53362     15.34960      2.63603         0.069261     -0.188414      0.186861
O       9.54649     15.26461     15.76377         0.373505      0.386529      0.316901
O       9.66637      3.90205      7.08460        -0.283053     -0.000636     -0.130559
O       9.59823     15.29129      7.07653        -0.258277      0.016740      0.027742
O       9.60531      3.79039     11.66385        -0.280062      0.183401     -0.801082
O       9.49066      0.05700     11.29853        -0.064421     -0.499046      0.168893
O       9.57579      7.62936      2.72716         0.043296      0.423429     -0.145200
O       9.51756      7.58456     16.03047         0.771199      0.672617     -0.750234
O       9.46410      7.67101      7.18382        -0.118319     -0.373045     -0.252058
O       9.53445      7.56051     11.46965         0.003934      0.943202      0.035713
O       9.46468     11.47638      2.80533         0.560859     -0.332529     -0.227947
O       9.65857     11.49083     15.71659        -0.893544     -0.090926     -0.069826
O       9.68903     11.43386      7.07848        -0.446170      0.300178      0.132333
O       9.57793     11.42646     11.42584        -0.043071      1.037542     -0.029851
