  # total energy = -7869.43166257 
CRSYTAL
PRIMVEC
    15.010000000000000    0.0000000000000000    0.0000000000000000
     0.0000000000000000   15.010000000000000    0.0000000000000000
     0.0000000000000000    0.0000000000000000    16.400000000000000
PRESSURE
18.6195 18.365 10.8647 0.059996 -0.040181 -0.025081
PRIMCOORD
320 1
Pb       3.70814      3.75515      4.15678         0.303052     -0.101092     -0.333938
Pb       3.75597      3.72722      0.06263        -0.288344      0.031559      0.130007
Pb       3.76558     14.99314      4.10822        -0.398946      0.088061     -0.054213
Pb       3.65072     14.98236      0.02850         0.512801      0.237417     -0.017662
Pb       0.01693      3.71958      4.07586         0.096226      0.314483      0.460948
Pb       0.02719      3.84384     16.39576        -0.414574     -0.660723      0.302530
Pb       0.05788     14.95818      4.01494        -0.234262      0.150571      1.016555
Pb      14.98578      0.02159     16.37158        -0.170995      0.061207     -0.007996
Pb       3.84847      3.77460      8.17446        -0.036965     -0.894687      0.445412
Pb       3.76262     14.87330      8.22682        -0.133095      1.125354      0.684194
Pb       0.05469      3.73186      8.15521        -0.097576      0.023487      0.124195
Pb       0.09019      0.00886      8.25561        -0.395834      0.073117     -0.321579
Pb       3.71300      3.74528     12.31991        -0.173391     -0.401657      0.120896
Pb       3.77730     14.96429     12.31465        -0.388588      0.301009      0.356929
Pb       0.00863      3.76147     12.24265        -0.284912      0.015619      0.670517
Pb      14.98247     15.00305     12.31294         0.088686      0.023972      0.115811
Pb       3.74153      7.43990      4.13199        -0.450981     -0.058999      0.110459
Pb       3.68982      7.46365     16.38984         0.229951      0.091961      0.039162
Pb      14.86480      7.49135      4.07740         0.661165     -0.028765      0.228574
Pb      14.95801      7.54236     16.35256         0.171066     -0.266063      0.662534
Pb       3.75186      7.43664      8.24801        -0.218225      0.164951     -0.132891
Pb      14.92178      7.45227      8.15229         0.781617      0.062222     -0.058273
Pb       3.75203      7.46740     12.33642         0.236566     -0.153133      0.044912
Pb      15.00391      7.53773     12.30478         0.289963     -0.799404      0.544736
Pb       3.69751     11.34299      4.04568        -0.057756     -0.339574      0.117643
Pb       3.70352     11.34797     16.37978         0.111895     -0.469140      0.190615
Pb      14.89214     11.33876      4.07437         0.462512     -0.541277      0.491941
Pb      14.90879     11.16475     16.36059         0.286811      0.292898      0.218987
Pb       3.72687     11.26231      8.24175        -0.464580     -0.344523      0.347525
Pb      14.91169     11.24384      8.22495         0.478201     -0.105132     -0.094434
Pb       3.69649     11.23947     12.34940        -0.049150     -0.113014     -0.155598
Pb      14.94326     11.23507     12.32405         0.207681      0.166018     -0.054631
Pb       7.47975      3.62227      4.20758         0.517530      0.759885     -0.118191
Pb       7.47453      3.70564      0.04794         0.452220      0.181283     -0.421856
Pb       7.47597      0.05626      4.13489         0.441397     -0.634827     -0.364841
Pb       7.56029      0.09240      0.07104        -0.069420     -0.706933     -0.453730
Pb       7.54258      3.74807      8.19073        -0.536714      0.191648      0.142528
Pb       7.53384     14.84120      8.23476        -0.606209      0.364442      0.656114
Pb       7.60580      3.68228     12.29642        -0.703375      0.283850      0.298341
Pb       7.50678      0.02829     12.38099        -0.067159     -0.128337     -0.496132
Pb       7.44938      7.51612      4.19439         0.356730     -0.085780     -0.258423
Pb       7.45239      7.49717      0.04864        -0.010333      0.014398     -0.600060
Pb       7.43763      7.55272      8.13699         0.166775     -0.877380      0.762625
Pb       7.44128      7.43332     12.32481         0.125064     -0.367344      0.572707
Pb       7.36191     11.25985      4.08910         0.514040      0.105990     -0.204372
Pb       7.48029     11.20038     16.39273         0.289502      0.588115      0.485209
Pb       7.37340     11.18590      8.28499         0.361981      0.406277     -0.110716
Pb       7.46109     11.18072     12.42979         0.034552      0.214843     -0.405431
Pb      11.32379      3.68423      4.07983        -0.757881      0.587276      0.484785
Pb      11.19375      3.70245     16.39996         0.823084      0.397108      0.184349
Pb      11.17370      0.04719      4.10459         0.174391     -0.318318      0.150755
Pb      11.27130      0.05967      0.00182        -0.198072     -0.614458      0.332468
Pb      11.25243      3.72587      8.17325        -0.128327      0.033913      0.086856
Pb      11.24137     14.94946      8.20003        -0.086073      0.113822      0.164678
Pb      11.31911      3.75742     12.32915        -0.242337     -0.440688      0.028830
Pb      11.28489     14.97235     12.24957        -0.387422      0.211635      0.184676
Pb      11.19710      7.47471      4.05928        -0.385643      0.066793      0.512798
Pb      11.26757      7.52855     16.38922        -0.215512     -0.362217      0.501369
Pb      11.28926      7.53327      8.16705        -0.413397     -0.279960      0.210408
Pb      11.32192      7.56228     12.32733        -1.014235     -0.475936      0.092671
Pb      11.18617     11.26287      4.09682        -0.489320     -0.036020      0.081258
Pb      11.25824     11.28456     16.39104        -0.485303      0.107092      0.342332
Pb      11.18217     11.15135      8.14176         0.105154      0.400183      0.239881
Pb      11.31769     11.18992     12.31216        -0.269816      0.255869     -0.100903
Ti       1.85286      1.84193      2.07772         1.511750      0.509559      0.425494
Ti       1.86990      1.85728     14.39480        -0.306498      0.385388     -0.714832
Ti       1.76173     13.07193      1.99601         1.264509      0.741009     -0.188354
Ti       1.83675     13.14127     14.40722         0.157957     -0.526639     -0.097667
Ti      13.17535      1.81672      2.21161        -1.046469     -0.064443     -1.182194
Ti      13.13145      1.82802     14.48669         0.295830      1.061961     -0.117153
Ti      13.14667     13.10246      2.09788        -1.967301      0.451259      0.005140
Ti      13.10222     13.09789     14.43532         0.221980     -0.194271     -0.215778
Ti       1.86929      1.81568      6.16116        -0.283098     -0.301265     -0.112131
Ti       1.84151     13.11548      6.25579         0.228003     -0.680232      0.162181
Ti      13.10294      1.85231      6.22810         0.329454     -0.170478      0.367816
Ti      13.08751     13.15813      6.21044         0.065809     -0.318013      0.526120
Ti       1.79532      1.90295     10.37177         1.293270     -0.338952      1.024358
Ti       1.77814     13.10651     10.38078         0.383603      0.203398     -0.606043
Ti      13.09908      1.85948     10.28051        -0.171228      0.243361     -0.314739
Ti      13.03418     13.10297     10.27037         0.612519     -0.035133      0.132591
Ti       1.88983      5.61523      2.13236         0.206925     -0.000288      0.546913
Ti       1.87096      5.59370     14.44463         0.138499      0.487932     -0.131208
Ti      13.11788      5.58972      2.14314        -0.781536      0.219340      0.005164
Ti      13.13991      5.60013     14.41967        -0.001621     -1.372948     -0.145147
Ti       1.95303      5.55279      6.22069        -1.223662      0.609617     -0.292398
Ti      13.12907      5.58012      6.24337         0.243562      0.393058      0.056167
Ti       1.85097      5.65886     10.36906        -0.394406     -1.081870      0.062047
Ti      13.05536      5.59479     10.37943         1.635564     -1.147315     -0.493833
Ti       1.84826      9.35264      2.11547        -0.950270     -0.358995      0.318989
Ti       1.86095      9.34149     14.44874         0.000109      0.746086     -0.203488
Ti      13.03439      9.35877      2.12317         0.586256     -0.344017     -0.082551
Ti      13.07198      9.32466     14.45373         0.495680      0.325286      0.269041
Ti       1.86222      9.38843      6.21260         0.039369     -0.841170      0.800113
Ti      13.15037      9.39758      6.15100        -0.639930     -0.571766      0.423595
Ti       1.88334      9.34272     10.33775         0.257701      0.570988     -0.886921
Ti      13.16119      9.27447     10.39819        -0.295074      1.427043     -0.589726
Ti       5.63303      1.89585      2.10738        -0.338365     -0.298336      0.192953
Ti       5.63340      1.87599     14.45374        -0.192226     -0.784251     -0.568458
Ti       5.52435     13.17639      2.03481         1.216810     -0.815357      0.518702
Ti       5.64437     13.14467     14.46668        -0.268693      0.526533     -0.370135
Ti       5.59086      1.78750      6.19345        -0.832031      0.881878      0.825355
Ti       5.55968     13.10006      6.26903         0.101867     -0.093622      0.100024
Ti       5.55256      1.80414     10.39859        -0.037555     -0.359819     -1.392823
Ti       5.53375     13.04454     10.37398         0.872483      0.654471     -0.586687
Ti       5.72386      5.63992      2.04997        -0.669689     -1.275359      1.449545
Ti       5.64437      5.53557     14.41788         0.276324      1.585929     -0.357201
Ti       5.67333      5.60037      6.14872        -0.368835     -0.190114      0.630763
Ti       5.61304      5.49159     10.37275         0.612156      0.881503     -0.005413
Ti       5.50335      9.29660      2.17732         1.060850      1.210064     -0.524751
Ti       5.57521      9.38033     14.47376         1.203126     -1.044950      0.355167
Ti       5.50859      9.39234      6.24143         0.680782     -0.487179      0.455859
Ti       5.65274      9.30599     10.35459        -0.915664     -0.041815      0.374471
Ti       9.38928      1.91267      2.06653         0.216105     -0.310316      1.191172
Ti       9.40997      1.88606     14.36506        -0.527372     -0.268988     -0.075965
Ti       9.36318     13.14554      2.15060         0.032333     -0.370662      0.501578
Ti       9.39304     13.12660     14.40136        -0.467648      0.514185      0.582885
Ti       9.29440      1.86027      6.27558         0.565364      0.396930     -0.333704
Ti       9.31900     13.11475      6.23338         0.803860     -0.506246      0.158096
Ti       9.34213      1.84757     10.22693         0.442342     -0.338061      1.400534
Ti       9.32590     13.04741     10.40166        -0.416538      0.533304     -0.757167
Ti       9.35998      5.61300      2.05850         0.306369      0.275756      1.400812
Ti       9.41186      5.68131     14.50668        -0.071758     -0.954080     -0.661599
Ti       9.39098      5.66314      6.23289        -0.370356     -1.313181      1.105896
Ti       9.39906      5.56446     10.37319        -1.510185      1.483432     -1.337163
Ti       9.27250      9.37631      2.08457         1.172944      0.340557      1.215372
Ti       9.30343      9.37939     14.44420         1.057874     -0.218360      0.468136
Ti       9.29844      9.35685      6.27956         0.514843      0.910408      0.011357
Ti       9.33479      9.32633     10.35402         0.704192     -0.547396     -0.484836
O       2.03102      1.83132      0.28566        -0.302815      0.208075     -0.278942
O       1.79832      1.94325     12.56519        -0.108429     -0.577664      1.345938
O       1.72942     13.16329      0.19274         0.150392     -0.132331      0.568912
O       1.92146     13.03676     12.61508        -0.056185      0.234467     -0.764961
O      13.07147      1.74378      0.40428         0.046723      0.236869     -0.113814
O      13.06042      1.87915     12.69795         0.184552     -0.387707     -0.350235
O      13.24088     13.11834      0.31134        -0.212499      0.096395     -0.357994
O      12.99204     13.03747     12.62193         0.149200      0.328858      0.001736
O       1.91665      1.88418      4.31877        -0.388154     -0.325983      0.480426
O       1.95744     13.14632      4.44961        -0.079160     -0.027152     -0.425628
O      13.21260      1.89492      4.42032        -0.014706     -0.269475     -0.297450
O      13.15233     13.02413      4.43032        -0.251478      0.232774     -0.785056
O       1.87566      1.84022      8.63949        -0.345776      0.052465     -1.927383
O       1.77613     13.05919      8.53884        -0.221823      0.212424      0.582892
O      13.10778      1.83584      8.50878         0.383315      0.242596     -0.930290
O      13.09948     13.11118      8.48078         0.487882     -0.007345      0.143578
O       1.91984      5.63200      0.35302        -0.031125     -0.038323     -0.740471
O       1.82651      5.62902     12.65879         0.230661      0.048193      0.111757
O      12.96764      5.63510      0.38735         0.723002      0.097576     -0.312505
O      13.17502      5.44561     12.61573        -0.491405      0.773962      0.216412
O       1.96692      5.47368      4.39703        -0.066605      0.237484     -0.251343
O      13.07430      5.58954      4.46021         0.127339     -0.083396     -0.735183
O       1.80063      5.62168      8.58525         0.257070     -0.159967     -0.940084
O      13.17457      5.60443      8.57146        -0.062210     -0.010544     -0.544849
O       1.87768      9.26725      0.32312         0.088702      0.297473     -0.615978
O       1.85466      9.32150     12.65104         0.190743      0.271037     -0.015818
O      13.17741      9.33343      0.30111        -0.640209     -0.161786     -0.049675
O      13.11843      9.33666     12.65285         0.179278      0.175266     -0.552851
O       1.91406      9.38714      4.44221        -0.052296     -0.069173     -1.053521
O      13.16608      9.34199      4.36321         0.119315      0.318694     -0.314257
O       1.78402      9.27347      8.52955         0.112667      0.060437      0.580379
O      13.07987      9.23723      8.60644         0.488948      0.235244     -0.498063
O       5.57834      1.73955      0.31512         0.101025      0.518303     -0.793741
O       5.65604      1.90017     12.62725         0.167629     -0.047204      0.290114
O       5.60946     13.25033      0.25082        -0.060182     -0.397944      0.319482
O       5.50226     13.06552     12.60090         0.383030     -0.315037      0.695045
O       5.71951      1.81076      4.38094        -0.432917     -0.187492     -0.444926
O       5.44140     13.05997      4.45738         0.120254      0.466977     -0.297939
O       5.52691      1.86161      8.58670         0.096228     -0.325886     -0.555003
O       5.62559     13.07929      8.48427         0.076487      0.131296      1.214184
O       5.70577      5.66017      0.26738        -0.031847     -0.011202     -0.009560
O       5.50655      5.45136     12.61069         0.700170      0.304941      0.321185
O       5.67765      5.55096      4.35471        -0.210860      0.205558      0.373267
O       5.58738      5.65206      8.56869        -0.046320     -0.139081     -0.118170
O       5.51670      9.22996      0.38044         0.485769      0.303654     -0.328116
O       5.66365      9.45299     12.70113        -0.032271      0.142082     -0.882925
O       5.52462      9.37336      4.45769         0.070140     -0.009098     -0.631278
O       5.63330      9.25622      8.56928         0.010711      0.283275     -0.188883
O       9.47967      1.85074      0.27505        -0.495319     -0.101547      0.382092
O       9.38896      1.91210     12.52982        -0.019074     -0.495288      0.895677
O       9.43029     13.19327      0.40490        -0.368145     -0.320969     -1.360597
O       9.39363     13.02383     12.62190        -0.057608      0.453550     -0.787588
O       9.31041      1.81590      4.43546        -0.130314     -0.223607      0.201343
O       9.45370     13.20874      4.44868        -0.342809     -0.094955     -0.056954
O       9.29704      1.87565      8.44391        -0.006545      0.088096      0.002655
O       9.36642     13.07730      8.56794        -0.388636     -0.151914      0.060144
O       9.45283      5.60633      0.31171        -0.458420     -0.131235     -1.263016
O       9.43609      5.67214     12.70866         0.026057     -0.019403     -0.734606
O       9.37149      5.52467      4.51377        -0.156165      0.600366     -1.655231
O       9.27069      5.61188      8.54221         0.497830     -0.397544      0.681232
O       9.39231      9.40170      0.33604        -0.106907      0.219831     -0.861012
O       9.27329      9.19801     12.66882         0.483391      0.615669     -0.395451
O       9.23387      9.41689      4.53104         0.192685     -0.407008     -1.398100
O       9.36188      9.49240      8.50056        -0.023600     -0.658588      0.904748
O       3.83211      2.16664      2.39794        -1.172134     -0.514987     -0.094029
O       3.73762      1.79117     14.56721         0.172506      0.304901      0.565397
O       3.61627     12.97746      2.18912         1.081350     -0.322253      0.428089
O       3.71333     13.25977     14.76484         0.673473     -0.440206     -0.079153
O       0.03035      1.57542      2.29771        -0.292585      0.667142      0.193313
O       0.00757      1.94428     14.89133        -0.407493     -0.213273     -0.442733
O      14.99568     13.20897      2.48759        -0.220987      0.422093      0.037410
O      14.99123     13.09923     14.54953        -0.409162     -0.626211      0.255947
O       3.65555      1.75354      6.47986         2.029631     -0.146849      0.052600
O       3.73695     13.15868      6.66814        -0.070649     -0.348333     -0.511826
O      15.00565      1.83082      6.54014         0.382996      0.215069      0.050431
O       0.00068     13.07122      6.38431        -0.242664     -0.264071      0.550956
O       3.71376      2.05849     10.66170         0.029300     -0.242840      0.313490
O       3.67936     12.87884     10.54108         0.119152     -0.015506      0.215232
O      14.95082      1.72182     10.64578         0.171682     -0.241111      0.002202
O      14.93697     13.17771     10.71535        -0.336447      0.908403     -0.116377
O       3.81969      5.43703      2.34740         0.046222      0.022044      0.013602
O       3.78610      5.70595     14.73289        -0.767411     -0.279052      0.043430
O      14.99590      5.76031      2.38104        -0.228697     -0.184800      0.133447
O      14.98959      5.55530     14.85784         0.138841      0.446111     -0.327417
O       3.76547      5.59008      6.56237         0.852062      0.406214     -0.072819
O       0.04252      5.52511      6.44027        -0.519306     -0.463686      0.332906
O       3.73652      5.50144     10.73885         0.261771     -0.006983     -0.564077
O      14.98485      5.71369     10.74204         0.268947     -0.000760     -0.511432
O       3.70373      9.53516      2.34765        -0.531107     -0.471132      0.448082
O       3.78470      9.28085     14.65469        -1.430341     -0.003638      0.397703
O      14.96896      9.03272      2.27502         0.044784      0.551967      0.473748
O      14.95708      9.42861     14.75468         0.781497     -0.146940     -0.269953
O       3.71818      9.29598      6.67857         0.029332     -0.328948     -0.253344
O       0.02922      9.44781      6.50295        -1.095567     -0.181255      0.082210
O       3.75613      9.50281     10.56971         0.109675      0.038831      0.480183
O       0.07259      9.18526     10.70580        -1.837427      0.032385     -0.179907
O       7.53941      1.58243      2.33341        -0.262955      0.140049     -0.048385
O       7.52304      1.87709     14.79583         0.246807      0.236965     -0.204409
O       7.43837     13.20357      2.38014        -0.474895      0.217353      0.279494
O       7.50721     13.09709     14.73726        -0.238364     -0.016619     -0.105822
O       7.40811      1.98304      6.45365         0.781242     -0.792691      0.260739
O       7.44851     12.99775      6.49266         0.286614      0.079517      0.043822
O       7.46568      1.70372     10.59494         0.979633     -0.260493      0.195150
O       7.45287     13.37305     10.63218         0.314160     -0.662182      0.043000
O       7.55064      5.84898      2.46632        -0.378078     -0.208223     -0.287461
O       7.54395      5.60569     14.66753        -0.361536     -0.449572      0.399979
O       7.47149      5.59165      6.56499        -0.080098     -0.051820     -0.234455
O       7.48291      5.75042     10.65128         0.442860     -0.270065      0.254338
O       7.47771      9.36257      2.46580        -0.698830     -0.435093     -0.067608
O       7.52085      9.35595     14.79921        -0.877954      0.636446      0.270017
O       7.43336      9.45725      6.63879        -0.090021     -0.010117     -0.501546
O       7.50809      9.15240     10.72482         0.471387      0.674677     -0.531116
O      11.25351      1.97283      2.50092        -0.141917     -0.179844     -0.279056
O      11.23184      1.79689     14.74224         0.806804     -0.064386     -0.151787
O      11.25827     12.97476      2.40235         1.024873      0.042933      0.107844
O      11.22455     13.14500     14.75723         0.685676     -0.179373      0.158858
O      11.21338      1.84830      6.53268         0.147759     -0.196461     -0.213775
O      11.25268     13.14936      6.63180        -0.383885      0.273685     -0.564953
O      11.27401      2.10236     10.44956        -1.767809     -0.271992      0.505263
O      11.22127     12.93696     10.58744        -0.021649     -0.001321      0.292928
O      11.15456      5.39619      2.38326         1.738868     -0.031871      0.703932
O      11.33723      5.66385     14.72282        -1.559461     -0.170595      0.148927
O      11.22253      5.58925      6.56055         1.052683      0.338443      0.180629
O      11.23596      5.50518     10.58299         0.451585     -0.395580      0.370007
O      11.22392      9.46588      2.48410        -0.211698      0.355141     -0.118680
O      11.26552      9.48552     14.72803        -1.184540     -0.697520     -0.073824
O      11.25440      9.21578      6.50670         0.291596      0.399160     -0.047543
O      11.28862      9.39596     10.70438        -0.289994      0.346872     -0.025136
O       1.73949      3.71066      2.35478        -0.355375      0.258372      0.066303
O       1.82443      3.77266     14.75367         0.704506     -0.759544      0.139920
O       2.05707     15.00750      2.37169        -0.038667     -0.759044      0.048851
O       1.67503     15.00686     14.62100         0.540776      0.506704      0.016301
O      13.22400      3.69985      2.47974         0.410348      0.244073     -0.168853
O      13.08645      3.71544     14.87904        -0.044307     -0.120200     -0.278043
O      12.98528     14.95617      2.46607         0.199111     -0.001228      0.252877
O      13.18884     14.95305     14.71943        -0.078244      0.453565      0.026131
O       2.03348      3.63078      6.49799        -0.860470      0.922828      0.277124
O       1.91667     14.93514      6.65629        -0.743466      0.736008     -0.415447
O      13.11522      3.71673      6.52995         0.005428      0.075512      0.231753
O      13.17739     15.00012      6.51849        -0.106450     -0.092976     -0.035974
O       1.76630      3.76895     10.70141        -0.190939      0.025914     -0.486720
O       2.05301      0.00241     10.68251        -0.755999     -0.822665     -0.120497
O      13.20048      3.68589     10.68502         0.424950      1.168379     -0.305541
O      12.85443      0.00701     10.52370         0.588709     -1.043052      0.474198
O       2.03182      7.45185      2.42179         0.373706      0.532369      0.358702
O       1.73726      7.49406     14.66791         0.421536     -0.060516      0.435414
O      12.83962      7.46881      2.47760         0.746828     -0.520027     -0.341677
O      13.07032      7.43853     14.68575         0.620627      1.304433      0.096614
O       1.83345      7.40229      6.40831         0.208973      0.831178      0.237973
O      13.21908      7.48900      6.43193         0.015053     -0.251940      0.414608
O       2.05712      7.46378     10.65693        -0.148693      0.804367      0.169467
O      13.09056      7.42760     10.67720        -0.316103      0.505350      0.288142
O       1.62457     11.25088      2.35256         0.160727     -0.607721     -0.065415
O       2.01776     11.25792     14.73586        -0.505777     -0.689365     -0.118521
O      13.27362     11.21458      2.29354         0.324901      0.051392      0.396064
O      13.08409     11.22255     14.81920         0.208640      0.392494     -0.373543
O       2.01658     11.20689      6.62722        -0.519796      0.800411     -0.521665
O      13.08888     11.22367      6.50226        -0.036684      0.030614      0.159392
O       1.59625     11.23765     10.63243         0.623982     -0.515884     -0.044751
O      13.24837     11.22835     10.59965         0.083804     -0.703092      0.031984
O       5.92857      3.71996      2.33058         0.147979      0.736061     -0.300278
O       5.70831      3.74507     14.87171        -0.667995     -0.798880     -0.148659
O       5.33455     15.00478      2.32682         0.289435     -0.495931      0.537244
O       5.71548     15.00363     14.62302        -0.044396      0.214979      0.078850
O       5.58077      3.69674      6.47069        -0.455403      0.519143      0.118808
O       5.62238     14.99589      6.57735         0.333266     -0.799287     -0.282853
O       5.81570      3.64884     10.51861        -0.135028      1.588901      0.522794
O       5.40734     14.92733     10.66354         0.016317      0.095316     -0.019554
O       5.61818      7.45251      2.51362        -0.753543      0.614922     -0.013406
O       5.78110      7.49028     14.66805        -0.465150     -0.279413      0.040623
O       5.65547      7.50173      6.46434        -0.105417     -0.533420     -0.062417
O       5.60524      7.48586     10.73736        -1.005574     -0.538891     -0.004510
O       5.61489     11.20653      2.50299         0.170753      0.876469     -0.651695
O       5.66705     11.26332     14.91308        -0.662484     -0.236407     -0.645344
O       5.51021     11.21747      6.62570         0.040984      0.400384     -0.351313
O       5.80181     11.21831     10.61221         0.340484     -0.350430      0.132595
O       9.19374      3.75268      2.50464        -0.193974     -0.988007     -0.670521
O       9.48732      3.72417     14.77191        -0.437711      0.279424     -0.338893
O       9.55863     14.99643      2.44287        -0.248013      0.731136     -0.153756
O       9.37091     14.99547     14.70507        -0.225175      0.366139     -0.190333
O       9.32142      3.72010      6.51058         0.221420      0.189564      0.292696
O       9.25492     14.97936      6.61386         0.121278      0.127868     -0.346583
O       9.24517      3.74836     10.73316         0.226092     -0.684903     -0.911089
O       9.54731     14.99286     10.56448         0.095463      0.264330      0.131513
O       9.61131      7.50952      2.34911        -0.736027      0.096682      0.124896
O       9.32136      7.50486     14.85929         0.654469      0.603202     -0.133435
O       9.27643      7.49528      6.52453         0.011514      0.135993      0.152653
O       9.64750      7.48314     10.54541        -0.628139     -0.025370      0.245775
O       9.36144     11.27126      2.51013        -0.651535     -0.604678     -0.075499
O       9.32775     11.27930     14.75499         0.171449     -0.819686      0.086334
O       9.54096     11.24664      6.44367        -0.438964      0.273503      0.234542
O       9.27446     11.19146     10.65254        -0.382996     -0.103310      0.375870
