  # total energy = -7877.86543812 
CRSYTAL
PRIMVEC
    15.2000000000000000    0.0000000000000000    0.0000000000000000
     0.0000000000000000   15.2000000000000000    0.0000000000000000
     0.0000000000000000    0.0000000000000000    17.000000000000000
PRESSURE
7.62192 7.13295 0.428549 -0.226064 -0.049002 -0.103515
PRIMCOORD
320 1
Pb       3.62608      3.86330      4.30771         0.347853      0.349495     -0.507859
Pb       3.99994      3.92228      0.04174        -0.360558     -0.063218      0.635119
Pb       3.59105      0.24030      4.39036         0.218884     -0.724030     -0.378469
Pb       3.92154     15.16479     16.98741        -0.015520      0.207232     -0.304905
Pb      15.18009      3.91383      4.18046        -0.001151      0.110869     -0.213191
Pb       0.16597      3.77280     16.92402        -0.800302      0.155885      0.552376
Pb      15.14427      0.32241      4.50524         0.150009     -0.999312     -0.800379
Pb       0.07408     15.08056     16.90260         0.028617      0.137718     -0.372211
Pb       3.97829      3.84627      8.42637        -0.373945     -0.194715     -0.031419
Pb       3.83762     14.94005      8.75747        -0.350636      0.481007     -0.527224
Pb       0.10389      3.68868      8.70030        -0.249444      0.172809     -1.086090
Pb      14.90552     15.07060      8.60851         0.906438      0.157127     -0.209357
Pb       3.83715      3.76964     12.58611         0.165831     -0.102919      0.706443
Pb       3.83505     15.18454     12.78755        -0.138017     -0.017700      0.491947
Pb      15.17585      3.76814     12.70216        -0.108909     -0.378927      0.338346
Pb       0.09133     15.17430     12.87351         0.055148      0.068324     -0.125267
Pb       3.65544      7.74403      4.35459        -0.173372     -0.200459     -0.173093
Pb       3.87777      7.65135      0.01457         0.135082     -0.462000     -0.111601
Pb      15.05445      7.89613      4.29615         0.285861     -0.539347     -0.251266
Pb       0.00912      7.57187     16.81390         0.137693     -0.166926      0.551069
Pb       3.80861      7.59361      8.33662         0.038946     -0.046752      0.657753
Pb      15.04422      7.47571      8.53040        -0.161549      0.075123     -0.015251
Pb       3.76729      7.41916     12.55928         0.084772      0.411028      0.305006
Pb      15.14636      7.33959     12.69874         0.299398      0.427441     -0.213898
Pb       3.47929     11.51694      4.37045         0.227161     -0.383122     -0.497890
Pb       4.08360     11.43873      0.34467        -0.373402     -0.021706     -0.610492
Pb      15.03602     11.56205      4.22495         1.026820     -0.612714     -0.237037
Pb       0.15009     11.41056     16.92153        -0.293364      0.107027     -0.322069
Pb       3.70034     11.40551      8.55270         0.035489     -0.328587     -0.161547
Pb      15.00417     11.41187      8.57666         0.161032     -0.130778      0.018052
Pb       3.70078     11.28909     12.70703         0.319761     -0.188584      0.372582
Pb      15.17181     11.03829     12.92085         0.290136      0.774587     -0.571596
Pb       7.55998      3.78524      4.20410        -0.045449      0.131627     -0.323861
Pb       7.55338      3.77885      0.07839         0.162219      0.235712     -0.049340
Pb       7.58154     15.13607      4.23259        -0.024063      0.321732      0.282823
Pb       7.65070     15.10233      0.00387        -0.089186     -0.089158     -0.262588
Pb       7.70784      3.75323      8.32208        -0.363608     -0.103402      0.287529
Pb       7.62141     15.10898      8.40371         0.235866      0.344000     -0.320931
Pb       7.58276      3.86024     12.76335        -0.188795     -0.891328      0.212644
Pb       7.56277     15.13255     12.81335         0.227990      0.660453      0.218196
Pb       7.76116      7.63058      4.17913        -0.587032     -0.593173      0.978634
Pb       7.52956      7.74211      0.09993        -0.206259     -0.584440     -0.151339
Pb       7.51633      7.64401      8.30904         0.473470     -0.339890     -0.022627
Pb       7.41936      7.51846     12.62117         0.354217     -0.044875      0.832882
Pb       7.48038     11.36721      4.26268         0.351192      0.361124     -0.041500
Pb       7.60590     11.45419      0.02257         0.282916      0.114534      0.286569
Pb       7.51750     11.57728      8.54766         0.766410     -0.533145     -0.727058
Pb       7.46522     11.28419     12.68823         0.528202     -0.022813      0.671849
Pb      11.42970      3.81072      4.08633        -0.008058      0.097161     -0.036134
Pb      11.38620      3.61956     16.99496         0.174672      0.454130      0.130052
Pb      11.51455     15.18461      4.12888        -0.425802      0.178457     -0.004677
Pb      11.50670     15.12001     16.91849        -0.321628      0.097187      0.440523
Pb      11.43610      3.80661      8.44917        -0.158423      0.083690      0.347818
Pb      11.26572      0.01762      8.39340        -0.147839     -0.193379      0.250796
Pb      11.33527      3.72154     12.81312         0.413985      0.003396      0.186678
Pb      11.41862     15.11528     12.72667        -0.315484      0.320282      0.101267
Pb      11.47270      7.75129      4.07396         0.006465     -0.653539      0.470201
Pb      11.36205      7.53043     16.90250         0.058631      0.502005      0.094013
Pb      11.25664      7.48941      8.61590         0.209501      0.248844     -0.534955
Pb      11.32323      7.48578     12.88846        -0.137577     -0.026631     -0.499723
Pb      11.39634     11.30488      4.12435         0.010036      0.047067      0.077218
Pb      11.44098     11.50414     16.81502        -0.145215     -0.915019      0.685301
Pb      11.25616     11.49219      8.51245         0.147662     -0.435889      0.209237
Pb      11.32323     11.29987     12.61882        -0.111170     -0.154022      0.352386
Ti       1.90415      1.95132      2.18483        -0.650525      0.373798     -0.676127
Ti       1.96974      1.96727     15.06577        -0.150319     -1.721644     -1.761802
Ti       1.94836     13.38804      2.11563        -0.640955     -0.869482     -0.344440
Ti       2.00235     13.25091     14.95642        -0.507878     -0.219481     -0.471446
Ti      13.32253      1.90655      2.20194        -0.291149     -0.136406     -1.379419
Ti      13.30972      1.82942     14.98060         0.708542      1.062677     -0.625755
Ti      13.39245     13.28864      2.13693        -0.142651      0.589810     -0.407455
Ti      13.26046     13.28641     14.80910         2.111260     -0.346825      0.433992
Ti       1.88837      1.83507      6.69691        -0.577104      0.152802      0.378192
Ti       1.85162     13.28441      6.59984        -0.499310      0.208879      0.046953
Ti      13.26126      1.89756      6.55331        -0.072515      0.129659     -0.447404
Ti      13.27924     13.29049      6.36050         0.330974     -0.263041      0.934404
Ti       1.92046      1.85980     10.76516        -0.154045     -1.141933     -0.724047
Ti       1.93228     13.20544     10.85095        -0.658422      0.996162     -0.770617
Ti      13.27300      1.83445     10.80129        -0.451424     -0.152454     -0.318207
Ti      13.37510     13.23316     10.83389        -0.269091     -0.443470      0.277203
Ti       1.84351      5.82847      2.19516         0.448356     -0.614731      0.005491
Ti       1.97584      5.61752     14.88176        -0.335441      0.683649      0.569425
Ti      13.28333      5.72139      2.05182         0.101069     -0.251905      0.778875
Ti      13.26666      5.57367     15.05362         0.226729      0.256415     -0.985740
Ti       1.86791      5.67901      6.47469        -0.725182     -0.420939      0.527983
Ti      13.26358      5.60984      6.28618         0.540240      1.020252      0.310919
Ti       1.92166      5.58343     10.56793         0.700543      1.480093      0.647797
Ti      13.24470      5.62537     10.75886        -0.566948     -0.141043     -0.683558
Ti       1.88211      9.53464      2.18480        -0.805802      0.329881      1.794269
Ti       1.96886      9.41737     14.96852        -0.608320      0.232982     -1.164132
Ti      13.32994      9.57785      2.02186        -0.385893     -1.088361      0.592221
Ti      13.25941      9.43366     14.95188        -0.590782      0.350071      1.424333
Ti       1.72375      9.46011      6.64302         1.572298      0.730980     -1.027995
Ti      13.22499      9.47301      6.60098        -1.205189     -0.335337     -1.330206
Ti       1.90812      9.41682     10.73203        -0.761754     -0.900666     -0.022108
Ti      13.24596      9.40826     10.86781         0.134409     -0.339659     -1.438297
Ti       5.64855      1.91759      2.30107        -0.269913      0.147402     -0.876521
Ti       5.72783      1.89688     14.99352        -0.089372     -0.496204     -1.063603
Ti       5.65360     13.36237      2.41364         0.102357     -0.547638     -0.752521
Ti       5.69549     13.25622     14.95342         0.474734      0.022384      0.379134
Ti       5.65766      1.78738      6.40706         1.187681      0.609828     -0.087867
Ti       5.62814     13.25624      6.41161         1.029316      0.133786     -0.702328
Ti       5.71791      1.84984     10.66292         0.538665      0.767921     -0.393801
Ti       5.77731     13.28590     10.80077        -0.901203     -0.138566     -0.208109
Ti       5.63690      5.79731      2.39643        -0.218474     -1.089617     -1.470103
Ti       5.69227      5.70897     14.97774         0.746590      0.529645     -0.652829
Ti       5.71887      5.68795      6.38877         0.084053      0.077760     -0.363468
Ti       5.75322      5.62064     10.55414        -0.829121      0.104283     -0.529081
Ti       5.70131      9.49060      2.43717        -0.813024      0.914179     -0.965801
Ti       5.66134      9.53429     14.97180         0.236805     -0.496402     -0.317799
Ti       5.63122      9.55364      6.43748         0.249401     -0.493071     -0.106195
Ti       5.73531      9.47603     10.61409        -1.938987     -0.681380     -1.224534
Ti       9.48341      1.86199      2.20331         0.078659     -0.099444      0.152515
Ti       9.50237      1.83979     15.06503        -0.586455      0.219834     -1.183673
Ti       9.52546     13.29613      2.28530        -0.308396     -0.331327     -0.583935
Ti       9.54058     13.25062     14.89747        -1.318567     -0.365387     -0.917482
Ti       9.52275      1.90163      6.29560        -1.183028     -1.591524     -0.622011
Ti       9.56380     13.25904      6.30790        -1.276609     -0.373814      1.566007
Ti       9.46355      1.81574     10.79770        -0.287313     -0.186916     -0.536149
Ti       9.47608     13.23334     10.81484         0.888650     -0.196326     -1.110614
Ti       9.48547      5.70803      2.14332        -0.096872     -0.478252      0.014691
Ti       9.38325      5.72234     15.07328         0.034155     -0.824116     -0.782859
Ti       9.59089      5.64634      6.31215        -0.852104      0.960323     -0.461656
Ti       9.46388      5.55403     10.86595         0.165720      0.851439     -1.578390
Ti       9.46699      9.48746      2.19472         0.362110      1.243098     -0.873686
Ti       9.35033      9.46744     14.93765         1.761164      0.687563      0.429817
Ti       9.49530      9.46074      6.41483         0.095177      0.388354      0.410931
Ti       9.41342      9.33931     10.71329         1.584446      0.814351     -0.842366
O       1.81721      1.95434      0.37923         0.520011     -0.233099      0.878855
O       1.89010      1.96624     13.20944        -0.049216      0.047190      0.234045
O       2.02702     13.20202      0.25525        -0.258550      0.466848      1.315624
O       2.07613     13.10297     13.10086        -0.481002      0.561738      0.565661
O      13.28821      2.05840      0.36873        -0.005970     -0.901803      0.683764
O      13.33733      1.87178     13.16660         0.028314     -0.080316      0.242450
O      13.45025     13.25631      0.33118        -0.592915      0.197641      0.385371
O      13.31915     13.42152     13.04361         0.025927     -0.692959      0.475133
O       1.67690      1.84079      4.88006         0.476870      0.037220     -0.669891
O       1.83611     13.41864      4.82559         0.029252     -0.590408     -0.613671
O      13.29518      1.86281      4.72755         0.082363     -0.012577      0.164510
O      13.40186     13.25016      4.58276        -0.565780      0.373696      0.163538
O       2.01127      1.86642      8.93380        -0.336241     -0.238889      0.594677
O       2.03675     13.35212      8.98380        -0.105444     -0.507000      0.662284
O      13.19054      1.82458      8.95912        -0.029045      0.149522      0.358865
O      13.26533     13.10353      9.00973         0.100688      0.746997      0.585205
O       1.94951      5.77006      0.39696         0.061735     -0.022575      0.794945
O       2.05121      5.57472     13.09130        -0.724715      0.059179      0.360228
O      13.30889      5.64068      0.27301        -0.197636      0.010869      0.031797
O      13.29260      5.60116     13.18401        -0.046618      0.166029      0.441569
O       1.80199      5.67505      4.68792         0.097479     -0.100601      0.556765
O      13.18691      5.56035      4.44947         0.341516      0.390271      1.491158
O       1.99278      5.63136      8.80749        -0.457622     -0.262833      0.224784
O      13.24214      5.59191      8.91380        -0.356765     -0.049585      1.569355
O       1.80641      9.51024      0.46722         0.398048     -0.234782     -1.331313
O       1.94304      9.39776     13.07367        -0.240588      0.102866      1.534994
O      13.26401      9.58868      0.27482         0.109000     -0.066576     -0.199389
O      13.27252      9.39829     13.17778         0.169202     -0.195257     -0.219989
O       1.79964      9.50336      4.76916        -0.184507      0.043942      1.179881
O      13.20503      9.47316      4.66023         0.117489      0.114896      1.645232
O       1.78840      9.36609      8.96219         0.348388      0.402138     -0.494956
O      13.32306      9.27430      9.03800        -0.051533      0.569640     -0.230202
O       5.52684      1.95333      0.44492         0.290649     -0.359379      0.512007
O       5.77864      1.85555     13.14212        -0.023420      0.083961      1.330056
O       5.58167     13.30105      0.52003         0.060159     -0.153661      0.170619
O       5.74398     13.28832     13.19635         0.095173     -0.419150     -1.510343
O       5.72005      1.88197      4.56993        -0.193452     -0.059619      0.860136
O       5.70928     13.27790      4.58588        -0.546688     -0.015490      0.942228
O       5.73378      1.83721      8.84543        -0.287847      0.122428      0.695115
O       5.73832     13.27211      8.97006        -0.050629     -0.105065      0.526872
O       5.58094      5.85526      0.41319        -0.212150     -0.309324      1.611428
O       5.84940      5.65911     13.11440        -0.267215      0.164653      1.373300
O       5.63430      5.56660      4.58767         0.152600      0.022204     -0.121264
O       5.60615      5.67919      8.76131         0.577458     -0.160309      0.223682
O       5.72520      9.46847      0.54019        -0.393616      0.206658      0.857614
O       5.80507      9.41837     13.18273        -0.224584      0.202099      0.175560
O       5.50806      9.64959      4.61365         0.454115     -0.397226      0.749885
O       5.68171      9.48447      8.76603         0.283097     -0.174299      1.709073
O       9.60947      1.77225      0.36312        -0.390099     -0.201163      0.785549
O       9.41825      1.77064     13.24336         0.062320      0.309491      0.508178
O       9.52489     13.34890      0.44660        -0.086162      0.031255      0.443973
O       9.48360     13.15700     13.05842        -0.043581      0.208078      1.455295
O       9.45733      1.80738      4.50105         0.024365      0.719039      0.803158
O       9.54714     13.15513      4.56640         0.007628      0.237581     -0.236870
O       9.43407      1.86326      8.99677         0.324938     -0.181727      0.077532
O       9.44148     13.24821      8.94787         0.108906      0.377121      0.895320
O       9.31338      5.73994      0.38124         0.796846      0.030793     -0.506844
O       9.37391      5.71508     13.16813        -0.140282     -0.282790      1.385279
O       9.59987      5.61200      4.52064        -0.297616     -0.125369      0.715234
O       9.45221      5.71356      9.01284         0.393061     -0.358768      0.562652
O       9.33891      9.60563      0.38718         0.349095     -0.488223      1.365795
O       9.50254      9.51405     13.14339        -0.637906     -0.059178      0.347596
O       9.68213      9.48809      4.61120        -0.499796      0.155844      0.345957
O       9.44409      9.23595      8.87790         0.016945      0.154298      1.157018
O       3.72602      1.94038      2.72273        -0.725119     -0.119325     -0.025091
O       3.83709      1.73967     15.27276         0.450839      0.371591      0.135113
O       3.75953     13.15907      2.64943        -0.942888      0.335562     -0.206576
O       3.84736     13.38477     15.23320        -0.533557     -0.288069      0.330905
O      15.12020      1.95956      2.65007         1.441838     -0.216423     -0.089749
O       0.03126      1.95285     15.32337        -0.238031      0.306260      0.005687
O       0.01483     13.31143      2.44415         0.475563     -0.056210      0.158300
O       0.02830     13.19102     15.21284        -0.050208      0.268263     -0.012616
O       3.79863      1.84113      6.54659        -0.271918     -0.131647      0.578178
O       3.77907     13.27166      6.82759         0.353617     -0.305612      0.229842
O      15.09553      1.83129      7.02442         0.495291      0.317552     -0.174943
O      15.10329     13.24450      6.88963         0.133949     -0.068394      0.233814
O       3.80119      1.66314     11.16176        -0.005369      0.543489     -0.649475
O       3.89303     13.43912     11.09769        -0.244247     -0.320951     -0.260190
O      15.13438      2.02823     11.06292         1.519934      0.009916     -0.226253
O       0.05124     13.06516     11.04612         0.140480      0.040045      0.031952
O       3.72424      5.77599      2.67444         0.027228      0.099602     -0.121709
O       3.84289      5.78117     15.18827        -0.363007      0.061364      0.287183
O      15.17790      5.59097      2.40612        -0.736358      0.175461      0.200432
O      15.18621      5.61639     15.23846         0.834132     -0.304217     -0.139115
O       3.79376      5.70825      6.78187        -0.727381     -0.311174     -0.478711
O      15.09215      5.51759      6.84744         0.491060      0.191033     -0.369084
O       3.88616      5.68215     11.02036        -1.385072     -0.011282     -0.289989
O      15.16794      5.54835     10.97485         0.277529     -0.205366      0.046142
O       3.70890      9.58420      2.59415         0.349997     -0.476743     -0.083665
O       3.76750      9.41678     15.23844         0.838411     -0.141541      0.368346
O      15.12894      9.47527      2.57020         0.223747      0.115768     -0.158636
O      15.18582      9.53217     15.38568        -0.223024     -0.264010     -0.913094
O       3.78221      9.40393      6.80836        -0.568105      0.569962     -0.016922
O      15.13373      9.41658      6.90274        -0.641245      0.255766     -0.000443
O       3.79125      9.27174     11.04500         0.625990      0.123229     -0.316262
O      15.19665      9.34019     11.14751         0.368008      0.270868      0.362913
O       7.50247      1.79544      2.53952         0.567182      0.241645     -0.265416
O       7.60128      1.85588     15.51307        -0.593252      0.088843     -0.284851
O       7.53669     13.29324      2.58375         0.390767      0.308903      0.087199
O       7.60564     13.19752     15.32730         0.893357     -0.094449      0.029485
O       7.58909      1.80284      6.65643         0.138011      0.480390      0.341152
O       7.57593     13.22576      6.67655         0.301372     -0.124982      0.324409
O       7.57366      1.97938     11.03384        -0.116563      0.045416      0.174730
O       7.62042     12.97170     11.13213        -0.846551      0.673883     -0.454181
O       7.60875      5.67275      2.52300        -1.237831      0.231880      0.603824
O       7.50618      5.64041     15.53733         0.555558     -0.007698     -0.907938
O       7.57968      5.68581      6.59032         1.486174     -0.365912      0.367977
O       7.55567      5.36551     10.96361         0.822046      0.682564      0.233416
O       7.56662      9.42212      2.69919         0.155721      0.236251     -0.107863
O       7.57453      9.69256     15.46152        -0.584310     -0.370492     -0.818543
O       7.60922      9.40834      6.66887        -0.229589      0.357048     -0.114496
O       7.56010      9.60255     10.93865         0.133863     -0.312770      0.370193
O      11.35404      1.80921      2.52702         0.093069      0.030853      0.072133
O      11.41008      1.70453     15.28630        -0.170008      0.438180      0.168778
O      11.41028     13.30446      2.49945         0.124560     -0.301254      0.087009
O      11.44163     13.34273     15.25605        -0.479949      0.668105     -0.053956
O      11.33322      1.69027      6.68769         0.156445      0.333526      0.550401
O      11.44627     13.31386      6.81955        -0.902336     -0.125538     -0.263460
O      11.39475      1.71708     11.11273        -0.244267     -0.368786      0.189585
O      11.39083     13.32396     11.18070         0.598088      0.047390     -0.604444
O      11.34497      5.61527      2.43225         0.365645      0.260280     -0.336446
O      11.38957      5.72256     15.31784        -1.539986      0.408573     -0.014617
O      11.40807      5.66791      6.79996        -0.676447      0.045720      0.007687
O      11.29482      5.69870     11.19021         1.194970     -0.090387     -0.134546
O      11.39856      9.50871      2.52371        -0.232756      0.280203     -0.537828
O      11.26251      9.37464     15.41367         1.328716     -0.079597     -0.591843
O      11.34911      9.57199      6.94219         0.675814     -0.864976     -0.189027
O      11.36880      9.36531     11.10133        -0.397076     -0.095323      0.042326
O       1.90490      3.84255      2.61035        -0.202555     -0.422923     -0.064573
O       2.01041      3.77638     15.44837         0.246452      1.268597     -0.475901
O       1.83422      0.03270      2.45657         0.458228      0.229622      0.320689
O       1.91737     15.19618     15.21531        -0.600382     -0.645149      0.304809
O      13.18445      3.75312      2.52400         0.106094      0.520027     -0.108562
O      13.07394      3.73551     15.28994         0.595944     -0.040092     -0.107811
O      13.26518     15.17930      2.48059         0.064833      0.201538      0.086043
O      13.48867      0.00183     15.26163        -0.594136     -1.016369      0.324472
O       1.84669      3.72536      6.92417         0.308078      0.414677     -0.230614
O       1.78275     15.09830      6.88649         0.299725      1.619988      0.489237
O      13.06539      3.77155      6.75980         0.404299     -0.594637     -0.022661
O      13.27662     15.17889      6.85720         0.064136     -0.729067     -0.131829
O       2.04970      3.73744     10.97583        -0.338363     -0.099837      0.086019
O       1.73689     15.11923     11.11639         0.333924      0.916990      0.190552
O      13.13890      3.72415     11.16268        -0.020069      0.399250     -0.302644
O      13.57343     15.10890     11.18885        -0.763049      0.620280     -0.954731
O       1.74504      7.63549      2.79575         0.588945      0.352625     -0.943733
O       1.89662      7.48039     15.39717        -0.322321      0.924322     -0.765016
O      13.18741      7.59454      2.42107         0.470479      0.025014     -0.230704
O      13.35541      7.56846     15.32568        -0.448227      0.110361     -0.183773
O       1.82817      7.56872      6.91326        -0.156372     -0.500291     -0.529092
O      13.31260      7.53010      6.77271        -0.260072     -0.094325     -0.235780
O       1.82608      7.43246     11.00811         0.218582      0.126708      0.251529
O      13.22077      7.50059     11.12230         0.532711     -0.976439      0.349752
O       1.80952     11.48619      2.59696        -0.100028     -0.708961     -0.027670
O       1.88772     11.29781     15.24182         0.395089      0.271172     -0.082942
O      13.35772     11.37368      2.55776        -0.507875      0.676280     -0.194886
O      13.15023     11.42345     15.15058         0.400880     -0.724357     -0.218131
O       1.85057     11.39612      7.02792         0.064335     -0.909625     -0.291971
O      13.28155     11.35998      6.82083         0.144487      0.256764     -0.037478
O       2.07731     11.33807     11.01695         0.001587     -0.744075     -0.181570
O      13.39330     11.25291     11.18914        -0.742990      1.023192     -0.056026
O       5.54743      3.85447      2.43475         0.462752     -0.495096      0.531726
O       5.55112      3.81729     15.31869         0.795027     -0.480872     -0.171347
O       5.44888     15.19225      2.50867         0.412392      0.492052      0.369126
O       5.79242     15.11313     15.23203         0.035041      1.327453      0.716438
O       5.75020      3.82014      6.85814        -0.360061     -1.474327     -0.563403
O       5.73917     15.08661      6.89567        -0.516929      0.929468     -0.611290
O       5.54282      3.79982     11.00735         0.153846     -1.829169     -0.385326
O       5.83627     15.17884     11.04157         0.338187     -0.670255      0.025529
O       5.61299      7.61136      2.78271         0.189881      0.439910     -0.123830
O       5.81743      7.65853     15.40971        -0.314892     -0.040262     -0.512965
O       5.71341      7.57581      6.76491        -0.315424      0.368742     -0.399692
O       5.79376      7.45481     10.94913         0.401919      1.711850      0.051185
O       5.72649     11.39023      2.64599        -0.253639     -0.357340     -0.468329
O       5.58342     11.40410     15.39499         0.054443     -0.652710      0.118719
O       5.79107     11.36947      6.91079        -0.874156      0.487556     -0.493533
O       5.51690     11.28057     11.04769         0.369448      0.785594     -0.078984
O       9.40225      3.76600      2.33827         0.048621     -0.795296      0.461779
O       9.36803      3.78745     15.31924         0.767291     -0.098932      0.148395
O       9.39486     15.14295      2.78164         0.579587      0.157766     -1.151975
O       9.48210     15.13117     15.26904        -0.313863     -0.540412      0.292056
O       9.52305      3.70124      6.75551         0.065394      1.116061     -0.126957
O       9.37604     15.11605      6.76744         0.715713      0.269023     -0.168346
O       9.61541      3.68562     11.21061        -0.234805      0.273429     -0.204111
O       9.32861     15.10629     11.16649         0.167734      0.351584     -0.294516
O       9.39016      7.62352      2.56558         0.880238     -0.422997     -0.424112
O       9.36492      7.58943     15.38157        -0.213959      0.107725     -0.341153
O       9.49015      7.55610      6.61517         0.323622     -0.581784      0.339989
O       9.43566      7.54733     11.25790        -0.494871     -0.302702     -0.746303
O       9.35794     11.35580      2.57968         0.421997      0.335299     -0.043989
O       9.68112     11.37874     15.30898        -0.760061      0.593801     -0.336254
O       9.54713     11.39446      6.94563        -0.521472      0.092944     -0.867058
O       9.67983     11.32819     10.93917        -0.512611     -0.636540      0.086671
