  # total energy = -7872.36902757 
CRSYTAL
PRIMVEC
    15.2000000000000000    0.0000000000000000    0.0000000000000000
     0.0000000000000000   15.2000000000000000    0.0000000000000000
     0.0000000000000000    0.0000000000000000    17.000000000000000
PRESSURE
7.84194 8.84958 2.68801 -0.170609 -0.16476 -0.107617
PRIMCOORD
320 1
Pb       3.61256      3.86889      4.33319         0.193335     -0.128862     -0.078590
Pb       4.04990      3.94160      0.01991        -1.267888     -0.563636     -0.426682
Pb       3.58427      0.26454      4.39834         0.666884     -0.646355     -0.275892
Pb       3.91776     15.14270     16.95799        -0.142957      0.348061      0.264158
Pb       0.04285      3.91678      4.19496        -0.327068     -0.017670      0.045748
Pb       0.20894      3.85492     16.92126        -0.003732     -0.238968     -0.026051
Pb      15.13365      0.33723      4.56624         0.470952     -0.947118     -0.925435
Pb       0.08064     15.03832     16.93141         0.033110      1.276335     -0.127612
Pb       3.99926      3.88449      8.39163        -0.073268     -0.364302      0.000853
Pb       3.86430     14.92878      8.79471        -0.490629      0.380331     -1.375041
Pb       0.17156      3.64406      8.72877        -1.265189     -0.065360     -0.260626
Pb      14.84198     15.08619      8.54040         0.977381      0.321792      0.846021
Pb       3.84633      3.70092     12.55298        -0.027755      0.078829      0.029140
Pb       3.82788      0.01254     12.84894        -0.165359      0.012829     -0.384592
Pb      15.14060      3.85048     12.70129         0.706512     -0.598139     -0.137181
Pb       0.09078     15.18788     12.91844         0.193090     -0.390041     -0.526225
Pb       3.66888      7.70452      4.37229         0.118776      0.184639     -0.181988
Pb       3.81192      7.64868     16.98838        -0.087133     -0.081961      0.115061
Pb      15.02755      7.89793      4.35765         0.833924     -0.683976     -0.560777
Pb      15.13643      7.50448     16.81783         0.510065      0.049250      0.108233
Pb       3.84346      7.58619      8.31290         0.304736      0.023492     -0.058802
Pb      15.02491      7.47662      8.53351         0.204652      0.405899     -0.781331
Pb       3.70629      7.40148     12.58395         0.308739      0.395003      0.551897
Pb      15.18134      7.34364     12.75002        -0.310814      0.913058     -0.005260
Pb       3.45520     11.51159      4.40043         0.957090      0.057294     -0.363417
Pb       4.11003     11.46051      0.35332        -0.360771     -0.112787     -0.807777
Pb      15.05095     11.54535      4.23086         0.734199     -0.258360     -0.080460
Pb       0.16044     11.39007     16.89299        -0.280026     -0.334873      0.008610
Pb       3.66295     11.40925      8.57202         0.046973     -0.066752     -0.590130
Pb      15.03193     11.40118      8.61467         0.372329     -0.015896     -0.447595
Pb       3.68529     11.27890     12.69522        -0.001454      0.161953      0.320743
Pb      15.15166     10.99078     12.99796        -0.455578      0.012804     -0.746868
Pb       7.55077      3.81168      4.26043         0.285431      0.127975     -0.323639
Pb       7.57123      3.79180      0.12867        -0.078108     -0.419842     -0.531931
Pb       7.57090     15.10185      4.24913        -0.472034      0.142309     -0.706549
Pb       7.67177     15.07066     16.97479        -0.207377      0.711674      0.755525
Pb       7.71566      3.65729      8.35475        -0.193729      0.708405     -0.075396
Pb       7.64785     15.16125      8.47241        -0.077424     -0.257654      0.055685
Pb       7.65663      3.83639     12.79038        -0.449123     -0.455547     -0.641098
Pb       7.56706     15.07847     12.87184         0.339954      0.995444     -0.988929
Pb       7.78450      7.55246      4.09073        -0.508957      0.208528      0.756378
Pb       7.60758      7.73586      0.15527        -0.080533      0.234546     -0.638554
Pb       7.50840      7.65460      8.26508         0.081699     -0.403406      0.119085
Pb       7.39290      7.55854     12.62926         0.986792      0.062927     -0.379921
Pb       7.46042     11.36490      4.28803         0.027722      0.040094      0.061430
Pb       7.55646     11.49083      0.02686        -0.049281     -0.569110     -0.158630
Pb       7.55314     11.58164      8.61302         0.010169     -0.613812     -0.437713
Pb       7.52275     11.31414     12.72102         0.260036     -0.294698     -0.231874
Pb      11.41574      3.93025      4.06843        -0.333108     -0.488598      0.123735
Pb      11.34542      3.59327     16.98598         0.008446      0.261348     -0.243934
Pb      11.52815     15.15266      4.09663        -0.342200      0.265214      0.518636
Pb      11.48489     15.14876     16.95037        -0.118090      0.261382     -0.210551
Pb      11.47085      3.81004      8.46186        -0.319921     -0.498862     -0.193602
Pb      11.28661      0.04231      8.41250         0.333862     -0.566976      0.519879
Pb      11.30893      3.66596     12.82113        -0.490608      0.025758     -0.154169
Pb      11.41883     15.16002     12.68239        -0.614857     -0.410857      0.338904
Pb      11.51126      7.65411      4.06908        -0.685479     -0.372426     -0.099339
Pb      11.41019      7.54730     16.89934        -0.832171     -0.159084      0.493162
Pb      11.25763      7.49269      8.70004         0.355832      0.075256     -1.120062
Pb      11.34071      7.54213     12.95609         0.337177      0.435891     -0.444428
Pb      11.37725     11.26878      4.13168         0.252664      1.024417      0.392264
Pb      11.48537     11.48669     16.72215        -0.461635      0.031985      0.806886
Pb      11.25843     11.46247      8.53070         0.554810      0.305840     -0.477646
Pb      11.26185     11.23990     12.51838         0.881747     -0.096548      0.790415
Ti       1.79054      1.94736      2.19162         1.080515     -0.350966     -1.076415
Ti       1.85872      1.89538     14.90310         0.490338      0.905521      1.367540
Ti       1.96643     13.35330      2.02791         0.278236     -0.716387      0.472407
Ti       2.02168     13.19485     14.93087         0.705290      1.226158     -0.610327
Ti      13.28271      1.96423      2.10047         0.306328      0.010487      0.265459
Ti      13.30569      1.91691     14.84295        -0.121538     -1.108653      1.344169
Ti      13.52271     13.44965      2.21687        -1.404348     -1.091577      0.439345
Ti      13.44203     13.27969     14.91634        -1.763728      0.700897     -1.561773
Ti       1.86443      1.94543      6.68763         0.600349     -1.760200     -0.752652
Ti       1.86429     13.37924      6.59300         0.860276     -0.815455      1.355698
Ti      13.22556      1.90485      6.49754        -0.208379      0.325670      0.633074
Ti      13.35928     13.24568      6.42339        -1.028381     -0.350190      0.658030
Ti       1.89355      1.76434     10.60937        -0.196451      1.034069      0.963447
Ti       1.90149     13.22007     10.86785        -0.623172     -0.719496     -0.568570
Ti      13.24531      1.76976     10.83625         0.281515     -0.086618     -2.062013
Ti      13.39190     13.15736     10.92504        -0.183828      0.412166     -1.385127
Ti       1.85555      5.81168      2.32599        -0.236628      0.375086     -1.301835
Ti       1.98821      5.73249     14.91149         0.104258     -1.284134      0.634352
Ti      13.27883      5.72314      2.04498         0.524245      0.030552      0.337724
Ti      13.15966      5.58587     14.98202         0.518518     -0.246375      0.549068
Ti       1.77434      5.64042      6.62865         0.597528      0.988736     -1.531635
Ti      13.28121      5.66114      6.31426        -0.548848     -0.340059      0.350334
Ti       1.92773      5.63638     10.56126         0.096943     -0.427438      0.299328
Ti      13.18119      5.53826     10.81028         0.569117      0.777948     -1.512139
Ti       1.77539      9.58253      2.12517         0.630791     -2.023541      0.434444
Ti       1.96682      9.43171     14.96538        -0.205436      0.211959     -0.771398
Ti      13.25416      9.59437      2.09088        -0.244177     -0.062392     -1.081851
Ti      13.16590      9.44131     15.11496         1.224505     -0.298521     -2.903785
Ti       1.86403      9.54105      6.60092        -1.419235      0.046301     -0.268922
Ti      13.20758      9.44043      6.52012        -0.047030      0.595948      1.445873
Ti       1.89796      9.29043     10.71593        -0.736065      1.546937      0.199005
Ti      13.33113      9.32995     10.71084        -0.453635      0.437535      1.469021
Ti       5.65081      1.94096      2.24191        -0.083780     -1.360777     -0.020070
Ti       5.68008      1.89599     15.08272        -0.079329      0.223524      0.362875
Ti       5.77818     13.34145      2.33141        -1.273844      0.518434      0.323356
Ti       5.76814     13.28620     14.87170        -1.228154     -0.452498      0.907304
Ti       5.66998      1.91407      6.36639        -1.064659     -0.508415      0.299421
Ti       5.71845     13.36391      6.51020        -1.667259     -0.977274     -1.580526
Ti       5.72539      1.85150     10.55761         0.389516      0.542145      0.194494
Ti       5.67940     13.24598     10.77260         0.521319      0.780095     -0.580477
Ti       5.56666      5.76687      2.30676         0.162544     -0.344445      1.727463
Ti       5.76914      5.78165     14.95091        -0.994527     -1.127602      0.265395
Ti       5.72691      5.66086      6.32719        -0.090970      0.964619      2.399818
Ti       5.71940      5.66584     10.60218         0.987085     -0.279433      0.103184
Ti       5.58901      9.52579      2.37975         0.220287      0.072680      0.470214
Ti       5.68477      9.45847     14.84360         0.215208      0.710738      0.810456
Ti       5.74077      9.62106      6.53839        -0.267374     -0.250814     -0.299572
Ti       5.65076      9.52036     10.64415         0.862399     -1.238529     -1.449937
Ti       9.47832      1.83556      2.24404         0.006259      0.008612     -1.022791
Ti       9.44001      1.83945     15.06629         0.631643     -0.203575     -0.264009
Ti       9.66765     13.33840      2.26088        -0.864629      0.107065      1.030580
Ti       9.46803     13.26041     14.88929         1.019182     -0.118533     -0.704289
Ti       9.41222      1.71693      6.27138         1.109831      1.655019      0.891729
Ti       9.49001     13.18734      6.41593         0.217055     -0.224528      0.208837
Ti       9.39941      1.81273     10.71349         0.704736      0.248320      0.567454
Ti       9.48690     13.21529     10.83656         0.222895      1.324598     -1.229999
Ti       9.43191      5.72024      2.05334         0.434076     -0.135085      1.014856
Ti       9.36974      5.69721     14.99004         0.644466      0.326660      0.964247
Ti       9.53801      5.65375      6.43253        -0.480864     -0.222850     -1.458573
Ti       9.51956      5.68202     10.76408        -1.580005     -0.963680      1.055041
Ti       9.44636      9.70070      2.20055        -0.045662     -2.087466     -0.349200
Ti       9.38213      9.56506     14.91306        -0.440009     -1.519996     -0.290477
Ti       9.57702      9.46176      6.38597        -0.785119     -0.370236     -0.114614
Ti       9.47944      9.39475     10.56973        -1.179770     -0.162452      0.244291
O       1.81172      1.88725      0.38701        -0.138249      0.465746      0.497791
O       1.73810      2.03439     13.14529         0.504153     -0.221155     -0.916567
O       2.00340     13.21244      0.17783        -0.622245     -0.246983      0.052322
O       1.93278     13.25065     13.10984         0.126033      0.066667      0.408803
O      13.27265      1.88605      0.35693         0.062680      0.136252     -0.676760
O      13.39967      1.81952     13.02792        -0.223536     -0.088741     -0.139032
O      13.46531     13.29918      0.45856         0.127645     -0.089519     -1.457649
O      13.36913     13.40015     13.08791         0.200535     -0.177808      0.326293
O       1.72195      1.84530      4.69006         0.159028      0.102622      0.822931
O       1.75673     13.15688      4.85577         0.329331      0.268820     -1.228067
O      13.36080      1.78225      4.72227        -0.260503      0.185147     -0.294962
O      13.35131     13.26743      4.63182         0.104291      0.241029      0.164610
O       1.98412      1.88456      8.83064        -0.124747      0.037487      0.386717
O       1.96220     13.22377      9.05448         0.097505      0.319412      0.283110
O      13.18460      1.92860      8.95850         0.025008      0.040227      0.105209
O      13.33286     13.23692      9.04894         0.092377     -0.598953      0.033709
O       2.08176      5.84160      0.52190        -0.584611     -0.177981     -0.208210
O       2.02487      5.65962     13.13812         0.032800      0.108142     -0.454752
O      13.27685      5.63333      0.24555         0.155477      0.468122      0.015991
O      13.19337      5.52683     13.21420        -0.040886      0.331210     -1.150947
O       1.75991      5.55945      4.79690        -0.085573      0.140484     -0.356495
O      13.27811      5.70647      4.51617        -0.283144     -0.106770     -0.030729
O       1.94130      5.61668      8.76901        -0.176984      0.413907     -0.142209
O      13.04041      5.54025      8.94377         0.808511      0.452629      1.317596
O       1.88742      9.56804      0.35101        -0.306985     -0.055779     -0.996087
O       1.93264      9.23655     13.15149         0.131477      0.648910      0.175682
O      13.17658      9.48205      0.26999         0.324468      0.074288     -0.729036
O      13.20497      9.42780     13.16318        -0.160746     -0.130165      1.164492
O       1.71090      9.55224      4.77903         0.253808      0.122660      0.044837
O      13.08935      9.46561      4.75006         0.366977      0.337028     -1.812468
O       1.75975      9.33036      8.98226        -0.272072     -0.195473     -1.329292
O      13.24817      9.39045      8.93502         0.302936     -0.286103      0.019112
O       5.66728      1.97134      0.42502        -0.428342     -0.297581     -0.287525
O       5.72452      1.74894     13.33856        -0.087555      0.060368     -1.003155
O       5.60627     13.21603      0.48999         0.328807      0.310757     -0.157514
O       5.82768     13.33709     13.09076        -0.449302      0.243300     -0.532989
O       5.64449      1.87015      4.57829         0.228034      0.003836     -0.156594
O       5.61104     13.35893      4.63954         0.518969     -0.262182      0.809894
O       5.67393      1.83823      8.78022         0.216923      0.080498     -0.087629
O       5.72129     13.22587      8.87782        -0.291697      0.173055      1.181377
O       5.54656      5.81048      0.56512         0.273297      0.048114     -1.451411
O       5.68549      5.80833     13.20097         0.186061     -0.378641     -1.340043
O       5.64686      5.43317      4.66279         0.247951      0.272119     -3.379751
O       5.66536      5.63098      8.87942         0.043243     -0.072544     -2.122518
O       5.72152      9.50548      0.57574         0.009238      0.048053     -0.017608
O       5.72446      9.44905     13.05197        -0.174362     -0.061489     -0.060540
O       5.53197      9.54666      4.80179        -0.083623      0.356971     -1.591211
O       5.70515      9.57136      8.80637         0.140758     -0.162605      0.604297
O       9.59945      1.54454      0.38551        -0.001571      1.160786      0.662930
O       9.52558      1.88184     13.27506        -0.329644     -0.258967     -0.485877
O       9.56385     13.42678      0.53278        -0.008205     -0.663265     -1.510897
O       9.39965     13.16111     13.06351         0.098598      0.236714      0.652277
O       9.45525      1.92119      4.53522         0.030974     -0.170651     -0.440652
O       9.51762     13.15341      4.67342        -0.274166      0.376208     -0.812469
O       9.44266      1.77163      8.92387        -0.389070     -0.063011     -0.047254
O       9.40735     13.35359      8.99952         0.036811     -0.263100     -0.321613
O       9.39589      5.78763      0.30653        -0.339059     -0.250226     -0.612286
O       9.31526      5.57552     13.23851         0.489681     -0.055384     -1.328103
O       9.47375      5.52350      4.57213         0.243125      0.499553      0.763562
O       9.62345      5.70752      9.03837        -0.222629     -0.209598     -1.685395
O       9.34055      9.55413      0.41138         0.053640      0.166278      0.049395
O       9.25293      9.61914     13.12701         0.803497     -0.001745     -0.283374
O       9.63218      9.51245      4.56620         0.134059     -0.208751     -0.312522
O       9.45287      9.24871      8.77709         0.005380      0.658935      0.945331
O       3.71237      1.84119      2.70936        -0.312328      0.384854     -0.507111
O       3.72160      1.92114     15.32825         0.926734     -0.482750     -0.210953
O       3.72703     13.13242      2.51795        -0.438761      0.125259      0.118278
O       3.91514     13.33957     15.23828        -1.496820      0.258229     -0.275504
O      15.15402      1.81882      2.51001         0.170751      0.127678      0.510131
O      15.14766      2.13301     15.25058         0.523922     -0.574582     -0.053370
O       0.11121     13.36757      2.62143        -0.330822     -0.245355     -0.156293
O       0.05576     13.29907     15.18369         0.252022     -0.460557      0.494431
O       3.74679      1.91279      6.66981         0.228610      0.073307     -0.128019
O       3.76648     13.19913      6.97448         0.031380      0.653229     -0.100789
O      15.14724      1.91989      6.97566        -0.481630     -0.139934     -0.496729
O       0.02913     13.32897      6.93335        -1.965927     -0.564202     -0.049665
O       3.87755      1.81048     11.00591        -1.102430     -0.299639      0.428419
O       3.73129     13.39555     11.24816         2.299696     -0.112500     -0.391689
O       0.00984      2.07631     10.86253         0.714793     -0.243546      0.280054
O       0.10372     13.05120     11.07878        -1.088978      0.203712      0.444883
O       3.68714      5.71593      2.78915         0.506278     -0.133649      0.042970
O       3.88559      5.78572     15.30726        -0.459363     -0.018096      0.216325
O      15.14412      5.63277      2.43631        -0.694089      0.175543      0.053554
O       0.00565      5.64514     15.08567        -0.209167      0.377561      0.781181
O       3.85063      5.67230      6.65645        -1.906677      0.127090      0.816748
O      15.09837      5.46801      6.83225        -0.345996      0.276588      0.379545
O       3.88347      5.70552     10.91654        -1.744457      0.348461      0.579470
O       0.01514      5.60499     10.92146        -0.616923     -0.204284      0.226982
O       3.71303      9.37737      2.56781        -0.641817      0.800555      0.005645
O       3.82473      9.40236     15.18994         0.400058      0.258113      0.258848
O      15.04400      9.50674      2.36412         1.498426     -0.029532      0.606518
O      15.11117      9.34134     15.13803         0.860725      0.384857      0.729408
O       3.69988      9.57132      6.89105         0.120798     -0.858083      0.004651
O      15.00770      9.57046      6.92537         1.199624     -0.580225      0.041565
O       3.80817      9.17283     10.83499         0.774918      0.160710      0.613948
O      15.17582      9.32763     11.26289         0.312778      0.414775     -0.715292
O       7.59256      1.79751      2.39523        -0.128632      0.383763      0.522457
O       7.58983      1.81625     15.45255         0.299928      0.214226      0.018618
O       7.59282     13.27850      2.56370         0.567816      0.219576      0.268258
O       7.56879     13.22750     15.34949         1.308918      0.198704     -0.094979
O       7.54418      1.93796      6.65573         0.611377     -0.371731      0.329435
O       7.55661     13.18750      6.88745         0.368772      0.230647     -0.285729
O       7.58867      1.94050     11.14021        -0.262887     -0.122175     -0.218746
O       7.59393     13.22216     10.99689        -0.947139     -0.611129      0.356740
O       7.45677      5.68022      2.61196         1.074777     -0.054454     -0.507129
O       7.57194      5.60926     15.40084         0.370365      0.002850      0.449695
O       7.57722      5.59484      6.76494         1.057759      0.372940      0.227810
O       7.53344      5.52703     11.04202         1.848365     -0.616879      0.696485
O       7.54776      9.45576      2.73219         0.016811      0.411096     -0.392708
O       7.53267      9.59793     15.32761        -0.572669     -0.030013      0.250722
O       7.62822      9.59026      6.57553        -0.406518     -0.362041      0.638709
O       7.57473      9.67953     10.97853        -0.159270     -0.152757     -0.113772
O      11.45785      1.79222      2.57350        -1.247425      0.635304      0.085840
O      11.43656      1.76661     15.26424        -0.120005     -0.209819      0.083047
O      11.50040     13.23803      2.55059        -0.170324      0.454716      0.040736
O      11.44351     13.29836     15.17639        -0.503561     -0.417353      0.294254
O      11.30463      1.70442      6.77734        -0.091519      0.172561     -0.419556
O      11.29376     13.32695      6.83283         1.316175     -0.180767      0.179363
O      11.36848      1.58391     11.07054        -0.037946      0.931252      0.133601
O      11.42835     13.26306     10.96601        -0.204841      0.150157      0.951239
O      11.34501      5.79283      2.26298        -0.005400     -0.418384      0.685619
O      11.23597      5.68328     15.37079         0.887343      0.055652     -0.298560
O      11.38219      5.69937      6.83154         0.024084      0.147870     -0.232342
O      11.38073      5.77610     11.21934        -0.583405      0.131773      0.152482
O      11.37036      9.63244      2.39876        -0.827138     -0.441750      0.478517
O      11.32072      9.44058     15.20628        -0.988006      0.447608      0.414040
O      11.36604      9.31647      6.94510         0.510999      0.572729      0.060818
O      11.35989      9.35965     11.04088        -0.456152     -0.234335     -0.165682
O       1.74867      3.83835      2.56583         0.607344     -0.750682     -0.037925
O       2.04316      3.87730     15.36682        -0.541536      0.140373     -0.021892
O       1.98577     15.09712      2.15879        -0.272171      1.941898      0.851068
O       1.76414      0.01572     15.06872         0.163637     -0.106816      0.272075
O      13.14478      3.82579      2.47147         0.485996      0.413564     -0.110440
O      13.14318      3.71814     15.25743        -0.199970      0.616436      0.079961
O      13.26432      0.09742      2.47236         0.365754     -1.756337      0.290003
O      13.33439     15.17788     15.30958         0.852863     -0.146942     -0.319837
O       1.88333      3.76685      6.84002         0.072152      0.096265      0.377896
O       1.91479     15.19018      6.93537        -0.088876      0.592839     -0.369400
O      13.04857      3.72415      6.57943         0.109824      0.465192      0.347210
O      13.30609     15.10226      6.84016        -0.269818      0.583687     -0.185335
O       1.96472      3.83995     10.99891         0.408674     -1.256608     -0.033645
O       1.89485     15.17926     11.15870        -0.447166      0.513799     -0.290573
O      13.11595      3.71043     11.09896         0.063278      0.334499      0.310688
O      13.50536     15.13687     10.79200         0.044470     -0.234051      1.551961
O       1.72405      7.65239      2.58331         0.101338      0.208769      0.596998
O       1.92335      7.62990     15.30331        -0.265745     -1.408823      0.616414
O      13.28762      7.66352      2.42832        -0.530788     -0.608974      0.234078
O      13.04997      7.47370     15.16006         0.814221      0.813114      0.556741
O       1.64304      7.58071      6.69965         0.428085     -0.293384      0.859011
O      13.33382      7.52418      6.48973         0.320394     -0.247901      1.077091
O       1.86238      7.46265     11.04524        -0.134524     -0.869688      0.255864
O      13.35840      7.48552     11.17352        -0.392488     -0.204640     -0.436574
O       1.73365     11.31081      2.53670         0.237239      1.975382      0.257429
O       1.90937     11.38505     15.04476        -0.427225     -1.216382      0.569884
O      13.30569     11.44647      2.44659         0.350626      0.081238      0.425403
O      13.32351     11.33058     15.11670         0.055646      1.096697      0.750894
O       1.78910     11.38898      6.99329         0.089300     -0.167625      0.114333
O      13.21731     11.41111      6.83538        -0.296678      0.152505      0.116869
O       2.11151     11.17325     11.06016        -0.348074      0.887230      0.098134
O      13.27572     11.28840     11.13134         0.060024     -0.655610     -0.167719
O       5.60823      3.74877      2.42915         0.002517      1.309712      0.426138
O       5.85790      3.82004     15.29989        -0.988629     -0.249576      0.467349
O       5.69715     15.18180      2.51790        -0.445496      0.345737      0.205106
O       5.74279     15.15411     15.43530        -0.045842      0.015058     -0.433240
O       5.66407      3.80161      6.68802         0.125352     -1.285517      0.806150
O       5.60852      0.00847      6.65637         0.381775      0.048126      0.744128
O       5.63384      3.73911     10.86776        -0.134063     -0.638497      0.699881
O       5.83877     15.13439     10.85959        -0.471345      0.382416      0.664078
O       5.53653      7.62007      2.74617         0.703584     -0.364796      0.000763
O       5.79995      7.57992     15.33241         0.151442      1.737527      0.138019
O       5.66427      7.56530      6.59452         0.017646      0.797669      1.000957
O       6.05570      7.53061     10.65638        -0.960781      1.740617      1.107140
O       5.57006     11.47280      2.57203         0.511940     -2.164079      0.292153
O       5.67352     11.43956     15.34841        -0.069899     -1.111463     -0.251576
O       5.54982     11.47018      6.78360         0.683025     -0.744009      0.200441
O       5.52822     11.42246     11.07428        -0.134476     -1.223899     -0.046384
O       9.45144      3.74175      2.33930         0.258698      0.710894      0.044936
O       9.63429      3.67211     15.32585        -1.019027      0.914666      0.397896
O       9.49844     15.19743      2.63206         0.179396     -1.067438      0.640104
O       9.44675     15.07135     15.33084         0.022956     -0.147300     -0.531292
O       9.44150      3.76865      6.77063         0.469479     -0.664927      0.024824
O       9.33158     15.08844      6.70339        -0.205537      0.865228      0.049345
O       9.63663      3.74450     11.08329        -0.141234     -0.481407      0.177361
O       9.41678     15.14409     11.13770        -0.219300     -0.008659      0.296916
O       9.42420      7.59820      2.32144        -0.229654      0.341293      0.806824
O       9.29689      7.65605     15.02411         0.520353     -0.734663      0.916661
O       9.47961      7.59690      6.67374        -0.489559     -1.393258      0.130560
O       9.25748      7.52621     10.98811         0.565520      1.107267      0.427481
O       9.34349     11.46869      2.57859         0.465799     -0.189909     -0.105748
O       9.42596     11.37888     15.31014         0.587509      1.522885      0.478548
O       9.54262     11.29138      6.71831         0.240481      1.128587      0.930320
O       9.51899     11.34243     10.83152         0.429918     -0.725328      0.276758
