  # total energy = -7881.71746022 
CRSYTAL
PRIMVEC
    15.3600000000000000    0.0000000000000000    0.0000000000000000
     0.0000000000000000   15.3600000000000000    0.0000000000000000
     0.0000000000000000    0.0000000000000000    17.440000000000000
PRESSURE
1.42182 0.755246 -0.527303 -0.253176 -0.277453 -0.020095
PRIMCOORD
320 1
Pb       3.88503      3.82713      4.38791        -0.406440     -0.054706      0.197156
Pb       3.92323      3.82181     17.42246        -0.444958      0.020126      0.292924
Pb       3.79168      0.02394      4.30795        -0.079496     -0.305772      0.331000
Pb       3.68762     15.33024     17.35676         0.225916      0.012788      0.044063
Pb       0.05445      3.73076      4.35473        -0.277855      0.389986      0.140144
Pb       0.08793      3.97009     17.41973        -0.703084     -0.576526      0.070631
Pb       0.09399      0.02301      4.32136        -0.599848     -0.307890     -0.002060
Pb      15.24005     15.33137     17.37691         0.107865      0.217011      0.019479
Pb       3.74999      3.73666      8.73534        -0.122326      0.378374      0.113254
Pb       3.86848      0.01186      8.56961        -0.595305     -0.574110      0.471793
Pb      15.15213      3.96302      8.62656         0.244657     -0.774542      0.312773
Pb      15.18855     15.34023      8.70227         0.783241      0.330698     -0.072238
Pb       3.75147      3.67268     13.10803         0.642629      0.316846     -0.541143
Pb       3.71696     15.35734     12.94006         0.422043     -0.889552      0.097375
Pb       0.04507      3.78944     13.05723        -0.493148      0.002819     -0.205138
Pb      15.33750     15.29083     13.07306         0.012547     -0.244957     -0.199405
Pb       3.86603      7.65822      4.33166        -0.848375     -0.000812     -0.172980
Pb       3.81550      7.56704     17.38224        -0.525743      0.837850      0.524660
Pb       0.12691      7.84467      4.35020        -0.257343     -0.945838     -0.182846
Pb      15.17615      7.68817     17.42581         0.706413      0.163312     -0.494397
Pb       3.83589      7.73605      8.62674        -0.116307     -0.773429      0.830683
Pb       0.04062      7.59647      8.62189        -0.739861      0.284848      0.518806
Pb       3.82438      7.55505     12.98410         0.285026      0.149766      0.104184
Pb      15.34911      7.62829     13.12386         0.131328      0.159416     -0.561821
Pb       3.81458     11.59830      4.22641        -0.352957     -0.256831     -0.069189
Pb       3.98365     11.62234     17.39713        -0.399840     -0.508603      0.152144
Pb       0.05764     11.55179      4.37640        -0.568186      0.304600     -0.628116
Pb      15.28411     11.57700     17.28885        -0.131358     -0.123119     -0.012786
Pb       3.88626     11.53460      8.60839        -0.648492     -0.064393      0.585572
Pb      15.27195     11.43690      8.69883         0.371207     -0.255395      0.195122
Pb       3.91553     11.44975     13.14768        -0.391413      0.212603     -0.434658
Pb       0.17534     11.58876     13.05018        -0.292005     -0.475965      0.052503
Pb       7.72939      3.75524      4.35141        -0.343491     -0.183922     -0.930192
Pb       7.67916      3.87996     17.42271         0.100565     -0.123765     -0.228258
Pb       7.70844      0.01754      4.39096         0.050130      0.151739     -0.170436
Pb       7.56018      0.08669     17.29823         0.344916     -0.261359      0.361780
Pb       7.60467      3.83248      8.77940         0.322665      0.074978     -0.314267
Pb       7.65889     15.23490      8.74386         0.096309      0.163079     -0.557620
Pb       7.87748      3.92264     13.05539        -0.618476     -0.954142      1.387072
Pb       7.67756      0.13203     13.02909        -0.622368     -0.089643     -0.244287
Pb       7.73890      7.51371      4.32614        -0.578078      1.034861     -0.358085
Pb       7.59785      7.79578     17.39392         0.548428     -0.761159      0.469254
Pb       7.70471      7.68031      8.65534        -0.274955     -0.239305      0.710500
Pb       7.59642      7.72648     13.03040         0.545833     -0.430053      0.132353
Pb       7.64235     11.53475      4.31432         0.300568     -0.621367      0.251408
Pb       7.75145     11.51899     17.40251        -0.489028      0.687531      0.041069
Pb       7.51483     11.59743      8.54398         0.479716     -0.530779      0.706610
Pb       7.77399     11.47157     13.00467        -0.579224      0.442811     -0.181587
Pb      11.43581      3.79280      4.30711         0.503606     -0.166227     -0.607592
Pb      11.74490      3.89857      0.06263        -0.084968     -0.138344      0.177297
Pb      11.53971     15.24241      4.33218         0.004287      0.635159      0.257706
Pb      11.30859     15.26858      0.02406         0.284645     -0.049012      0.011779
Pb      11.38241      3.87568      8.69413         0.597593      0.037429     -0.182800
Pb      11.52745      0.00071      8.74147        -0.368856     -0.103836     -0.310033
Pb      11.61742      3.71494     13.06847        -1.049803      0.345737      0.095035
Pb      11.56801     15.33798     13.02315        -0.096153     -0.066019     -0.686673
Pb      11.51753      7.60491      4.34321        -0.015156      0.785362     -0.528935
Pb      11.54358      7.67024     17.38756        -0.356684      0.173221      0.184456
Pb      11.52014      7.71097      8.71185         0.285165     -0.109388      0.043673
Pb      11.36368      7.64477     13.10988        -0.006331     -0.242901     -0.605388
Pb      11.59926     11.43938      4.25905        -0.552213     -0.489964      0.942469
Pb      11.40552     11.39846     17.35462         0.267251      0.270494     -0.015795
Pb      11.63530     11.46337      8.56887        -0.733786     -0.330038      0.327340
Pb      11.55095     11.46002     13.02592        -0.063308      0.148830     -0.312593
Ti       1.95583      1.95384      2.32222        -1.622278     -0.452974     -1.100162
Ti       1.86757      1.84843     15.42017        -0.614684     -0.321542     -0.603801
Ti       1.83681     13.43109      2.24082        -0.071789     -0.321197     -0.203101
Ti       1.90305     13.36054     15.47627        -1.461425      0.581318      1.016477
Ti      13.39532      1.91182      2.44157         0.257264      0.580299     -0.832594
Ti      13.42966      1.91849     15.35438         0.066824      0.702208     -0.141414
Ti      13.32499     13.45687      2.19258         1.351156     -0.295303      1.202485
Ti      13.30024     13.52867     15.38846         0.477017     -1.055747     -0.076698
Ti       1.86399      1.87828      6.83495        -0.782198     -0.291483      0.241377
Ti       1.82309     13.36867      6.69212         0.052501      1.129824      0.579891
Ti      13.31252      1.89783      6.67623         0.969694     -0.027556     -0.819234
Ti      13.41201     13.38600      6.67389        -0.205216      0.506024     -0.002279
Ti       1.89863      1.77960     11.00554        -1.571961     -0.067709     -0.754083
Ti       1.84352     13.30637     10.88258         0.608369     -0.409789      1.154743
Ti      13.46275      1.85290     11.03002        -0.149074     -0.221924      0.024399
Ti      13.42372     13.34178     10.93400        -0.395277      0.565015      1.453247
Ti       1.94376      5.71385      2.30169        -1.610032      0.886533      1.448854
Ti       1.94278      5.69800     15.32209        -0.889116      1.706684     -0.084098
Ti      13.55335      5.77164      2.46476        -1.237989     -0.234063     -0.045879
Ti      13.45873      5.80946     15.30032         0.010952     -0.741714      0.986082
Ti       1.92590      5.72711      6.79316        -0.546985     -0.513195     -2.046758
Ti      13.38182      5.71187      6.52523        -0.085248     -0.162807      0.334910
Ti       1.87877      5.63416     11.03346         0.377427      0.746970      0.135915
Ti      13.35301      5.65962     11.07164        -0.180828      1.022421     -0.975948
Ti       1.81947      9.64975      2.19436         0.405357     -0.912569      0.136718
Ti       1.89568      9.59219     15.51025        -0.524921     -0.213738     -0.297203
Ti      13.39135      9.62821      2.27671        -0.479092     -0.295511      1.145459
Ti      13.38307      9.64982     15.34511        -0.163355     -0.094642     -0.318767
Ti       1.91528      9.57757      6.67136        -1.126575      0.050769     -0.379809
Ti      13.44059      9.49203      6.60871        -1.001423      0.175809     -0.141060
Ti       1.99481      9.45157     11.03929        -0.874776      0.998246     -0.670020
Ti      13.43571      9.46280     11.16742        -0.218352     -0.246843     -1.193225
Ti       5.67496      1.84584      2.28420         0.897469      0.710798     -0.769714
Ti       5.66066      1.95760     15.42879         1.160664     -0.278048     -0.604696
Ti       5.79222     13.49035      2.40829        -0.624784     -0.751188     -0.490589
Ti       5.74846     13.49341     15.34590        -0.326082     -0.317939      0.262205
Ti       5.75536      1.89332      6.68306        -0.162701     -0.972319      0.126130
Ti       5.62260     13.39231      6.56301         0.135414      0.415009      0.325628
Ti       5.66728      1.91319     10.85256         0.627981     -0.021146      2.586070
Ti       5.67908     13.37657     10.99915        -0.173024      0.070298      2.173594
Ti       5.67967      5.72452      2.36923         0.525088     -0.143641     -1.183472
Ti       5.69938      5.76983     15.47525         1.595462      0.017562     -1.382851
Ti       5.70781      5.62424      6.70018        -0.275111      0.572113     -0.132344
Ti       5.77362      5.66019     11.05831        -0.403904      0.838539     -0.126697
Ti       5.61973      9.60742      2.33562         0.814926     -0.530389      0.112161
Ti       5.71714      9.58550     15.44078        -0.617730      0.307089     -1.180505
Ti       5.63771      9.45821      6.66226         1.388754      0.110275     -1.023690
Ti       5.77330      9.58474     11.05320         0.152082      0.524673      1.465041
Ti       9.54554      1.84818      2.25016         0.253189      0.520460     -0.234854
Ti       9.69031      1.93401     15.51790        -1.298647      0.497011     -1.288750
Ti       9.57913     13.37769      2.41109        -0.153830      0.388140     -1.507557
Ti       9.56372     13.45370     15.21641        -0.358473     -0.018933      0.689569
Ti       9.56664      1.86257      6.68194         0.111706     -0.434964      0.064404
Ti       9.51059     13.40930      6.70666         0.691256      0.059322      0.943661
Ti       9.54757      1.88554     10.94012         0.505316      0.552176      0.821842
Ti       9.51167     13.50358     11.00390         0.134473     -0.704639      0.246195
Ti       9.57008      5.72515      2.28368         0.505427     -0.132976      0.083675
Ti       9.65149      5.70934     15.53623        -0.938924      0.054980     -0.685065
Ti       9.47959      5.71097      6.56925         1.113401     -0.047111      1.367837
Ti       9.56369      5.65585     10.97317         0.311471      0.937356      2.204706
Ti       9.48623      9.52741      2.29819         0.618234      0.144419     -0.329097
Ti       9.48601      9.61059     15.40429         1.750568     -0.743181     -0.329132
Ti       9.47300      9.57564      6.81419         1.229012      0.170509     -2.550369
Ti       9.60570      9.63034     11.06397        -0.297936     -0.561827     -0.851280
O       1.76549      2.00820      0.54371         0.715490     -0.281705      0.390308
O       1.90912      1.73635     13.58973         0.147448      0.721073      0.908253
O       1.81061     13.37984      0.45548        -0.107845      0.218072      0.516801
O       1.74896     13.41479     13.78842         0.099481     -0.315532     -2.808674
O      13.44196      2.06417      0.67456        -0.000840     -0.466962     -0.001087
O      13.55327      1.96331     13.54374        -0.574650     -0.530665      0.972824
O      13.39699     13.48671      0.42720        -0.283716     -0.051507      0.426629
O      13.28097     13.61465     13.59009        -0.176992     -0.515878      0.946776
O       1.88442      1.85290      5.08451         0.103005     -0.137041     -0.981378
O       1.81795     13.49589      4.90813         0.110450     -0.414899      0.042938
O      13.30727      1.88452      4.84118         0.065257     -0.011732      1.143650
O      13.48497     13.41677      4.92453        -0.187506     -0.101780      0.551390
O       1.80549      1.83579      9.24189         0.438479      0.248824      0.424226
O       1.85377     13.21490      9.17111         0.014778      0.272644     -0.810095
O      13.47478      1.90423      9.27537        -0.137519     -0.216292      0.035262
O      13.48736     13.35627      9.17288        -0.233640     -0.046908     -0.021415
O       1.89015      5.65244      0.58072         0.016136      0.046255     -1.233128
O       1.92189      5.83569     13.53816         0.110813     -0.494844      0.512595
O      13.47013      5.65455      0.65358         0.351331      0.523775     -0.034671
O      13.38941      5.67383     13.57414         0.015096      0.203130     -0.129008
O       1.89959      5.79954      4.97922         0.192113     -0.354338      1.373367
O      13.45973      5.60691      4.73351        -0.589995      0.531517      1.200230
O       1.85284      5.63000      9.25892        -0.184762      0.281022      0.061535
O      13.38477      5.72256      9.22279         0.070523     -0.195403      1.824652
O       1.80368      9.64037      0.42884        -0.002591      0.016754      0.711167
O       1.72801      9.65348     13.73362         0.386002     -0.169675     -0.278183
O      13.28956      9.55468      0.51747         0.449422     -0.035779     -0.123614
O      13.26973      9.45779     13.56430         0.282907      0.571419     -0.136035
O       1.87392      9.50294      4.88689         0.180178      0.407216      0.770540
O      13.28961      9.64393      4.85872         0.509980     -0.166139      0.700309
O       1.94750      9.42139      9.22995         0.255203      0.240298      0.870674
O      13.43685      9.43401      9.35227        -0.341050      0.208201      0.032394
O       5.63497      1.87495      0.45356        -0.047822      0.096242      1.385178
O       5.59136      2.03812     13.65856        -0.355105     -0.489209      0.484352
O       5.95903     13.35579      0.66779        -0.635778      0.142768     -0.492319
O       5.61426     13.53469     13.63247         0.218822     -0.181198      0.029540
O       5.64061      1.83590      4.92751         0.337933      0.080071      0.046370
O       5.64946     13.39853      4.79009         0.048642      0.084547      0.224740
O       5.68763      1.88109      9.13581         0.340016     -0.035785     -1.009759
O       5.63089     13.46154      9.26686         0.299231     -0.587871     -0.963966
O       5.60095      5.68096      0.55079         0.098556     -0.020950      0.650556
O       5.70795      5.85851     13.67525        -0.385709     -0.299815      0.747439
O       5.59174      5.59499      4.90726         0.560794      0.382787      0.560800
O       5.87464      5.75587      9.30851        -0.025426     -0.208511     -0.541740
O       5.77429      9.76170      0.60454        -0.240379     -0.407321     -0.741300
O       5.75902      9.48153     13.63969         0.068903      0.354953      1.480006
O       5.66143      9.24362      4.90109         0.185515      1.054246      0.525992
O       5.75417      9.75609      9.33791        -0.405044     -0.508650     -1.536623
O       9.46344      1.82785      0.46161         0.371088      0.102193      0.694619
O       9.65915      2.08160     13.70433        -0.197112     -0.871011      0.771080
O       9.62422     13.37864      0.60419        -0.262177     -0.117895      1.718644
O       9.49748     13.45316     13.42337         0.501171      0.475510      1.366790
O       9.63993      1.72714      4.89277        -0.469733      0.488352      0.441561
O       9.42972     13.47314      4.98122         0.083606     -0.101348     -1.307032
O       9.59855      1.86988      9.18350        -0.586789      0.109830      0.230289
O       9.42168     13.52743      9.21586         0.030850     -0.091736      0.229836
O       9.58595      5.80736      0.53524        -0.179523     -0.315826     -0.398442
O       9.59053      5.62721     13.75275         0.232357      0.312255      0.715239
O       9.42957      5.70664      4.77098         0.247308     -0.102996      1.123196
O       9.54040      5.53216      9.27654        -0.142584      0.052209     -1.984064
O       9.68506      9.65901      0.46940        -0.752309     -0.234749      1.453154
O       9.58408      9.50064     13.61084        -0.249319      0.298337      0.291368
O       9.53655      9.57494      4.97782        -0.564443     -0.311860      1.289783
O       9.72419      9.60332      9.31692        -0.616472      0.029940     -0.883575
O       3.81217      1.84108      2.78731         0.023522     -0.103249     -0.321682
O       3.69713      1.86778     15.90169         0.418127      0.415465     -0.392739
O       3.82178     13.42974      2.60857        -0.374743     -0.253647      0.277637
O       3.70282     13.41987     15.71479         3.103470      0.403491      0.778434
O       0.03052      1.90429      2.76793         0.157007     -0.378565      0.327638
O      15.29770      1.78573     15.82888        -0.010573      0.712435     -0.352195
O      15.23602     13.36291      2.76739         0.593499      0.177862     -0.656693
O      15.21946     13.41648     15.70040        -0.522275      0.024545      0.568104
O       3.79898      1.85129      7.09285         0.762730      0.357508      0.212322
O       3.71317     13.40187      7.09217         1.307170     -0.122827     -0.355698
O      15.25210      1.90021      7.06312         0.376917      0.100129      0.027613
O      15.33552     13.41180      7.08889        -0.316626     -0.129036     -0.018255
O       3.75038      1.93525     11.27532         0.572055     -0.456431      0.616845
O       3.71831     13.22784     11.43249         0.546179      0.499435     -0.052978
O      15.35330      1.85298     11.38497         0.366897      0.383730      0.422080
O      15.31085     13.36962     11.37740        -0.091021     -0.466449      0.023353
O       3.69983      5.73195      2.73025         1.976105     -0.463007      0.285941
O       3.78242      5.83206     15.87935         0.386121     -0.617581     -0.487781
O      15.35757      5.73792      2.78483         0.808962     -0.004107     -0.171712
O       0.00272      5.71530     15.72357        -0.287927      0.465995      0.010783
O       3.82407      5.59849      7.14937         0.899563      0.711753      0.041817
O      15.26359      5.71059      7.03036         0.862748     -0.135793      0.049461
O       3.79850      5.83827     11.21824        -0.039008      0.009639      0.788621
O      15.28118      5.79490     11.49301         0.231953     -0.675836     -0.208404
O       3.73792      9.65313      2.67249        -0.113522     -0.399164      0.040478
O       3.80726      9.58321     15.86460         0.788286      0.088201     -0.144304
O      15.28889      9.56832      2.72179         0.520754      0.605773     -0.337410
O      15.28189      9.64197     15.84733        -0.130818      0.161646     -0.013247
O       3.78854      9.53753      6.99847         0.381892     -0.112389      0.410094
O      15.30963      9.50963      6.94109         0.934888     -0.023595      0.367872
O       3.88566      9.64039     11.54982        -1.322920     -0.740235     -0.494356
O      15.25916      9.47747     11.32888         1.084510     -0.119231      0.795955
O       7.59158      1.85770      2.65574         0.523847     -0.004670      0.306573
O       7.63512      1.86844     15.78991        -0.734864      0.059150     -0.118548
O       7.66717     13.46023      2.82766         0.694508     -0.303035      0.229472
O       7.65781     13.40420     15.71421        -0.018807      0.470299     -0.198782
O       7.69056      1.89382      7.06579        -0.770105     -0.431361     -0.181520
O       7.52085     13.43885      7.03184         0.483788     -0.219431     -0.003421
O       7.48185      2.08371     11.44275         0.757540     -0.890206     -0.646865
O       7.57832     13.39892     11.47846         0.165564      0.015840     -0.405101
O       7.63660      5.69453      2.61121        -0.750506     -0.098521      0.537860
O       7.60451      5.74084     15.78689         0.200379      0.151837      0.589994
O       7.67408      5.76032      7.20071        -0.249187     -0.695927     -0.977535
O       7.67956      5.49503     11.46138        -0.559823      1.137462     -0.390617
O       7.53621      9.29869      2.66519         1.003839      1.204886      0.091227
O       7.67111      9.68278     15.87704        -0.740098     -0.683869     -0.251897
O       7.59527      9.57664      7.19265        -0.455928      0.148673     -0.269313
O       7.67207      9.64417     11.41386         0.272437      0.138801      0.347268
O      11.48234      1.88747      2.72133        -0.322190      0.379996     -0.099643
O      11.50517      2.02902     15.82133         0.823735     -0.522988      0.051487
O      11.48260     13.38090      2.82321        -0.340991      0.047636     -0.600824
O      11.36535     13.37763     15.92980         0.506201      0.504197     -1.036095
O      11.46586      1.96187      7.17450         0.084744     -0.722423     -0.253305
O      11.46407     13.43950      7.04704         0.610434     -0.399375      0.015872
O      11.45633      1.73696     11.23393         0.312710      0.155564      0.584898
O      11.42376     13.62432     11.33311         0.619729     -0.102553     -0.143230
O      11.47484      5.66011      2.63660        -0.049247      0.377369      0.613226
O      11.57124      5.75668     15.88648        -0.157865      0.170131     -0.382859
O      11.50213      5.73501      7.14670        -0.932794      0.018636     -1.151135
O      11.40159      5.65623     11.48921         0.971434     -0.223542     -0.155080
O      11.48669      9.56656      2.81781        -0.891491     -0.238308     -0.569918
O      11.49277      9.50130     15.77905        -0.424352      0.434256     -0.002847
O      11.46123      9.49861      7.05223         0.807291      0.326065      0.407566
O      11.40795      9.48448     11.37814         0.929666      0.385597      1.103407
O       1.97108      3.76501      2.79187        -0.337597      0.457529     -0.083256
O       1.88652      3.90085     15.72401         0.180621     -1.593919     -0.241560
O       1.86926     15.26995      2.59038         0.063481      0.955155      0.464784
O       1.78763     15.31418     15.75842         0.462142      0.992082      0.740669
O      13.53182      3.84596      2.80237        -0.645460     -0.490064      0.060658
O      13.40266      3.83569     15.78965         0.384986      0.020317     -0.219537
O      13.34710     15.31193      2.77292         0.296480     -0.208529     -0.545066
O      13.23170      0.02565     15.81720         0.264110      0.206886     -0.094284
O       1.98174      3.83107      7.24154        -0.817784     -0.427962     -0.549115
O       1.90952     15.31855      7.21942        -0.393301     -0.253946     -0.426306
O      13.37369      3.78996      7.11064        -0.145214      0.512525     -0.582591
O      13.44359     15.35261      7.16507        -0.662670     -0.371153     -0.463130
O       1.88497      3.79043     11.59769         0.085206     -0.275295     -0.752845
O       1.84471     15.16398     11.39902         0.365999      1.638346     -0.112900
O      13.34374      3.74846     11.50557         0.640832      0.149551     -0.523507
O      13.57244     15.26343     11.48339        -0.885877      0.672786     -0.552713
O       1.82173      7.66805      2.67468         0.304833      0.479176     -0.285352
O       1.86530      7.69469     15.80255        -0.059610     -0.724495      0.215244
O      13.36641      7.77258      2.92232         0.378976     -1.257601     -0.923836
O      13.46622      7.73991     15.75038         0.004666     -1.392846      0.126190
O       1.97259      7.64181      7.15053        -0.153446     -0.067780     -0.151678
O      13.48122      7.58571      7.02537        -0.550239      0.424379     -0.405226
O       1.88561      7.61295     11.45505        -0.075083      0.371308      0.040295
O      13.22743      7.53139     11.50752         0.419918      0.600318      0.029591
O       1.89563     11.52648      2.73301        -0.383102     -0.087227     -0.030191
O       1.98920     11.53185     15.84725        -0.874301     -0.942182      0.240875
O      13.33460     11.50600      2.71856         0.350034      0.332103     -0.550439
O      13.27505     11.52237     15.74599         0.224980      0.252687     -0.253590
O       1.91870     11.47196      7.13394        -0.358316     -0.710122     -0.687159
O      13.54984     11.46062      7.10950        -0.896152     -0.166421     -0.365255
O       1.80634     11.39232     11.40628        -0.031642     -0.078981      0.155930
O      13.30462     11.50347     11.43834        -0.087338     -0.178134     -0.127357
O       5.70512      3.74765      2.82794        -0.249720      0.184890     -0.418030
O       5.75635      3.82197     15.85265        -0.911999      0.404467      0.017060
O       5.73414     15.33916      2.76384        -0.137738      0.463068     -0.047961
O       5.59664      0.03313     15.84790         0.314136     -0.861544     -0.283268
O       5.77767      3.74983      7.04875         0.021246      0.629279      0.220837
O       5.68386     15.24316      7.03112        -0.005199      0.835694     -0.109805
O       5.55138      3.85761     11.33113        -0.222535     -1.121133      0.048070
O       5.68630     15.26396     11.42496        -0.224860      1.325527     -0.328851
O       5.58950      7.55191      2.70445         0.002955      0.429370     -0.096582
O       5.75212      7.70601     15.92210        -0.128407     -0.116341     -0.094604
O       5.76382      7.58304      7.07844        -0.357123      0.043250      0.205420
O       5.84713      7.73236     11.57934        -0.523242     -1.085557     -1.009666
O       5.72647     11.45722      2.78831         0.314320      0.390166      0.275276
O       5.77639     11.49870     15.83131        -0.430044      0.702275     -0.318531
O       5.65082     11.44603      6.97992         0.143207      0.329940     -0.195720
O       5.70570     11.48190     11.66544         0.485292      0.263321     -0.668536
O       9.56337      3.77642      2.73021        -0.420415     -0.282826     -0.028554
O       9.52803      3.81255     15.90733         0.087849      0.749601      0.291879
O       9.65587     15.35794      2.68019        -0.462078     -0.914165      0.186101
O       9.59418     15.33156     15.86086        -0.057486     -0.243987     -0.719862
O       9.57586      3.76228      7.02188        -0.296363      1.423026     -0.370488
O       9.61406     15.30586      7.15969        -0.475192      0.243470     -0.154361
O       9.59242      3.76541     11.54389         0.388972     -0.898722     -0.797953
O       9.38112      0.05458     11.44082        -0.140020      0.143581     -0.169649
O       9.49826      7.65771      2.71376         0.731375     -0.332814      0.066530
O       9.56406      7.71161     15.94004        -0.241858     -0.491904     -0.510905
O       9.49817      7.65312      7.12924         0.164561     -0.992900     -0.321526
O       9.49031      7.56162     11.32385        -0.140553      0.542917      0.356006
O       9.55861     11.39673      2.84308        -0.749730      0.830105     -0.524785
O       9.57081     11.52341     15.68004         0.006215      0.098516     -0.011363
O       9.57161     11.49722      7.14037        -0.377457      0.243618      0.000024
O       9.63509     11.62291     11.45922        -0.100856     -1.074067     -0.111783
