  # total energy = -7877.02638121 
CRSYTAL
PRIMVEC
    15.2000000000000000    0.0000000000000000    0.0000000000000000
     0.0000000000000000   15.2000000000000000    0.0000000000000000
     0.0000000000000000    0.0000000000000000    17.000000000000000
PRESSURE
6.87926 7.45805 2.30294 0.209608 -0.221222 -0.027346
PRIMCOORD
320 1
Pb       3.66721      3.81779      4.29021         0.612602     -0.099430     -0.185524
Pb       3.87851      3.85883     16.99193         0.017188     -0.377037     -0.463994
Pb       3.68151      0.12511      4.25161         0.642378     -0.678423      0.380765
Pb       3.81208     15.17762     16.92488         0.510980     -0.037886      0.235505
Pb       0.04873      3.83082      4.21055         0.061397     -0.114448      0.186065
Pb       0.11313      3.90809     16.95507         0.290937     -0.824871     -0.256431
Pb      15.16251      0.12491      4.41390        -0.164076     -0.307668     -0.816389
Pb       0.03720     15.13523     16.96586        -0.085613     -0.081413     -0.073888
Pb       3.87279      3.84900      8.36421        -0.133899     -0.246084      1.054632
Pb       3.81200     15.09272      8.63179         0.059158      0.183519     -0.399904
Pb       0.10481      3.64940      8.59478        -0.734020      0.927554     -0.139227
Pb      15.01486     15.16896      8.47412         0.029883     -0.041130     -0.376878
Pb       3.84141      3.63024     12.58826        -0.323618      0.920039      0.670303
Pb       3.81471      0.07528     12.81844        -0.389898     -0.961010      0.012129
Pb      15.14513      3.81820     12.67957         0.331782      0.446666      0.640092
Pb       0.04099      0.01096     12.80799         0.061986     -0.767638      0.597230
Pb       3.72761      7.61551      4.30983         0.328085      0.113036     -0.665183
Pb       3.73072      7.62375     16.96232         0.371573     -0.184323     -0.156081
Pb      15.12039      7.71699      4.32037         0.111422     -0.263550     -0.186488
Pb      15.07647      7.49195     16.92412         0.931791      0.283552     -0.135930
Pb       3.82813      7.57815      8.38007        -0.324180      0.126910      0.348334
Pb      15.08466      7.54026      8.49299         0.752801      0.526952     -0.295357
Pb       3.68663      7.51655     12.69984         0.412077     -0.084105     -0.029758
Pb       0.02234      7.52124     12.80442        -0.163944     -0.046420     -0.622929
Pb       3.61249     11.40286      4.30386         1.019761      0.437592     -0.416974
Pb       3.97324     11.39772      0.11967        -0.793065      0.382364     -0.207170
Pb       0.02556     11.42004      4.19276        -0.735009      0.091652      0.747026
Pb       0.07905     11.32540     16.86110        -0.422277      0.841913      0.695874
Pb       3.68508     11.37520      8.55530         0.360054     -0.106709     -0.451378
Pb      15.16643     11.34774      8.59402        -0.160425      0.198258     -0.715218
Pb       3.74784     11.27209     12.65619        -0.147587      1.400348      1.074327
Pb      15.13897     11.12072     12.91689         0.130633      1.214359     -1.016635
Pb       7.55291      3.82114      4.26467         0.533972     -0.246973     -0.232083
Pb       7.61438      3.78305      0.09062        -0.259459      0.170643     -0.886652
Pb       7.56905     15.11085      4.21907        -0.201187      0.469348      0.509721
Pb       7.67395     15.12177     16.96663        -1.013477      0.357587     -0.571019
Pb       7.65922      3.61359      8.46995        -0.577006      1.053818     -0.217761
Pb       7.62691      0.05421      8.53960         0.046069     -0.861240     -0.680449
Pb       7.67865      3.71572     12.75435        -0.566252      0.732939      0.031930
Pb       7.57800     15.12989     12.79203         0.295195      0.372106      0.740112
Pb       7.65645      7.47771      4.12146         0.190622      0.849616     -0.100542
Pb       7.66700      7.68062      0.07075        -0.461372     -0.924169     -0.243762
Pb       7.57163      7.61510      8.35870        -0.143008      0.093722     -0.006347
Pb       7.53842      7.65908     12.64745        -0.282896     -0.846981      0.723693
Pb       7.51182     11.35781      4.29321         0.076188      0.369101     -0.407914
Pb       7.52796     11.43529     16.96780         0.413356      0.026505      0.233769
Pb       7.62394     11.43711      8.61174        -0.494928     -0.017216     -0.616180
Pb       7.66041     11.38968     12.69152        -1.160271     -0.496165      0.758093
Pb      11.34866      3.96686      4.12835        -0.093410     -0.857203      0.101344
Pb      11.31713      3.65510     16.95056        -0.059159      0.595260      0.266510
Pb      11.46024     15.16616      4.18500        -0.154870      0.109302     -0.165046
Pb      11.39843      0.01708     16.98091        -0.075952     -0.340737      0.015773
Pb      11.42818      3.78284      8.47453         0.130580     -0.196912      0.080830
Pb      11.36173      0.01396      8.48649         0.092976      0.036723     -0.429729
Pb      11.30657      3.62990     12.73516         0.039921      0.945309      0.303346
Pb      11.39640      0.02283     12.64562        -0.642562     -0.532468      0.925483
Pb      11.43587      7.48706      4.15008         0.056970      0.709408     -0.177559
Pb      11.40113      7.60558     16.94686        -0.291927     -0.331114      0.319135
Pb      11.34342      7.54316      8.63620        -0.009626      0.227322     -0.755203
Pb      11.39649      7.66243     12.88558        -0.221216     -0.840101     -0.752624
Pb      11.36535     11.32622      4.21015         0.027142      0.188775     -0.276170
Pb      11.44855     11.40512     16.79626        -0.229534     -0.084537      0.680257
Pb      11.37791     11.35443      8.50277        -0.510554      0.540592      0.311919
Pb      11.28854     11.20336     12.55639         0.503015      0.934120      0.086320
Ti       1.87670      1.98196      2.23905         0.820370     -1.151460     -0.275561
Ti       1.94125      1.84259     15.04315         0.245269      0.633825     -0.046495
Ti       1.73390     13.42738      2.36661         1.467746     -0.882995     -0.807659
Ti       1.89679     13.23800     14.95499        -0.006703      1.036037     -1.248597
Ti      13.32025      1.93215      2.20925        -0.038700     -1.179215     -0.220619
Ti      13.32811      1.87443     14.98597         0.012410     -0.209023      0.224258
Ti      13.20999     13.23100      2.14070        -0.044743      0.779450      0.671012
Ti      13.17644     13.34560     14.80967         0.866783     -0.482667     -0.542709
Ti       1.92083      1.83508      6.59992        -0.493395      0.904286     -0.457601
Ti       1.84869     13.34710      6.44637        -0.972939     -0.773140      1.228112
Ti      13.31526      1.98914      6.37280        -0.044727     -0.760231      0.961019
Ti      13.19267     13.28796      6.41677         0.572623     -0.016044      0.268596
Ti       1.81712      1.86538     10.75984         0.657464     -0.278258     -0.012287
Ti       1.75962     13.32287     10.64584         1.041288     -1.112286      1.067410
Ti      13.31469      1.96038     10.90562        -0.389419     -0.250903     -2.085130
Ti      13.22927     13.39807     10.69904        -0.094278     -1.142563      0.240505
Ti       1.94815      5.77646      2.18323         0.755000      0.555437     -0.390777
Ti       1.94644      5.64320     14.80054         0.064309     -0.223109      0.742463
Ti      13.44812      5.61723      2.13228        -1.388469      1.011793      1.239873
Ti      13.25051      5.57277     14.93669         0.077784      0.098740     -0.534088
Ti       1.92775      5.68236      6.50848        -0.528307      0.468269     -0.076672
Ti      13.30249      5.67580      6.49577         0.373491      0.786299      0.027899
Ti       1.82630      5.68120     10.64026         1.388975      0.462988      0.104770
Ti      13.23323      5.78831     10.67248        -0.260843     -0.369593     -0.012278
Ti       1.95370      9.56421      2.27406         0.059353     -0.939949      0.889210
Ti       1.89641      9.47643     14.99220         0.772479      0.325801     -0.450848
Ti      13.37380      9.50756      2.18424        -0.983446     -0.662342     -0.322108
Ti      13.26975      9.46127     14.96106         0.021429      0.147841     -0.637654
Ti       1.85528      9.51959      6.46180        -0.841247     -0.878551      0.108813
Ti      13.16098      9.53721      6.53546         0.715136     -0.589252      0.601395
Ti       1.83083      9.51269     10.66969        -0.180410      0.167066      0.645675
Ti      13.22947      9.49080     10.66494         0.295601      0.524246      0.012246
Ti       5.75160      1.98352      2.31086        -0.543027     -1.437804     -1.026799
Ti       5.76143      1.94069     14.85652        -0.468449     -0.805597      1.414159
Ti       5.61322     13.36642      2.32679        -0.665423     -0.078165      0.015372
Ti       5.64423     13.19051     14.92445         0.324116      1.364269      1.540756
Ti       5.70886      1.77711      6.51998        -0.225546      0.593058      0.067114
Ti       5.61526     13.27919      6.50466         0.859756     -0.073524     -1.053237
Ti       5.72175      1.82738     10.74991        -0.185059      0.593604      0.226343
Ti       5.63887     13.30557     10.80518        -0.475117     -0.925269      0.067950
Ti       5.68332      5.70124      2.17727         0.141696      0.191065      0.314080
Ti       5.69081      5.66132     14.88547         0.816658      0.407379      0.458904
Ti       5.71855      5.65634      6.33591        -0.290319     -0.145493      1.901625
Ti       5.59294      5.68704     10.70974         0.444610     -0.997949      0.824665
Ti       5.80830      9.50987      2.18567        -0.657959     -0.370358      0.913943
Ti       5.69556      9.44556     15.08164        -0.594560     -0.617755     -0.279477
Ti       5.66536      9.48830      6.35622         0.164425      0.428922      0.581576
Ti       5.57777      9.41172     10.75763        -0.135643      1.075142     -0.414237
Ti       9.48917      1.81514      2.21748         0.191298      1.494127      0.449014
Ti       9.49520      1.89017     15.02030        -0.864823     -0.587061     -0.192801
Ti       9.39085     13.29389      2.16650         0.836083     -0.833435      0.357823
Ti       9.45840     13.24573     14.91910        -0.436851      0.736759     -0.119737
Ti       9.57466      1.96019      6.37079        -0.194419     -0.770942     -0.416111
Ti       9.45983     13.35880      6.39914        -1.289632     -0.043064      0.175520
Ti       9.45942      1.86636     10.69417        -0.021735      0.244509      0.906662
Ti       9.40854     13.27049     10.80116         0.002620      0.276968     -0.206752
Ti       9.54320      5.68456      2.11686        -0.187041     -0.434127     -0.527941
Ti       9.45727      5.74952     14.92130        -1.269068     -0.246244      1.147468
Ti       9.52572      5.78412      6.44355        -0.272840      0.053938      0.177539
Ti       9.38850      5.67055     10.64285        -0.102261      0.352933      0.504846
Ti       9.62066      9.54523      2.12488        -0.669973     -0.854471      0.119348
Ti       9.45682      9.44093     14.97446        -0.348829     -0.318231      0.369253
Ti       9.42092      9.63216      6.38161        -0.209500     -0.583649      0.585392
Ti       9.38940      9.36296     10.68921        -0.315587      0.660826     -0.909900
O       1.93649      1.75740      0.47339        -0.321650      0.265417      0.165434
O       1.91607      1.75923     13.27219        -0.028522      0.324611     -0.201610
O       1.84088     13.49332      0.55033        -0.099726     -0.486550      0.493496
O       1.81725     13.29353     13.14840         0.040291     -0.127439      1.505679
O      13.38883      1.89297      0.42107        -0.273263      0.002433      0.422287
O      13.24021      1.95369     13.17837        -0.253131      0.174403      0.492885
O      13.15165     13.15726      0.36551         0.383309      0.384919      0.304163
O      13.17479     13.37734     12.99678         0.037969     -0.536385      1.521986
O       1.84887      1.87522      4.78186        -0.141558      0.412342      0.382541
O       1.68982     13.25870      4.67807         0.324250      0.168374      0.318933
O      13.34270      1.92966      4.61036         0.009899      0.342845      0.216903
O      13.06730     13.25783      4.60697         0.550523     -0.264238      1.370631
O       1.66103      1.87797      8.96298         0.577692     -0.398230      1.034123
O       1.87600     13.19773      8.84403        -0.113978      0.514016      0.964504
O      13.37709      1.97132      9.04795        -0.263385     -0.559779      1.385596
O      13.12235     13.49337      8.86090         0.258821      0.010815      1.275869
O       1.96470      5.82931      0.36087        -0.412041     -0.353854      1.151756
O       1.83971      5.71840     13.00811        -0.083869     -0.018086      0.870609
O      13.62393      5.59751      0.37720        -0.909386      0.319650     -0.066659
O      13.20940      5.57996     13.13082         0.360068      0.227379      0.806551
O       2.05769      5.67678      4.66726        -0.596774      0.080153      0.936074
O      13.11223      5.73873      4.67058         0.702865     -0.319638      1.081199
O       1.89851      5.68739      8.84955         0.141821     -0.073596      0.664932
O      13.39319      5.86807      8.84792        -0.860662     -0.742557      1.588775
O       1.85880      9.53568      0.52341        -0.166684      0.019696     -0.792638
O       1.77433      9.62244     13.17859         0.005433     -0.568263      0.811081
O      13.36938      9.44367      0.36475        -0.115970      0.086871      0.123430
O      13.25396      9.47045     13.10865         0.058372     -0.045972      1.065526
O       1.79029      9.39855      4.61067         0.118561      0.256944      1.292195
O      13.11338      9.50782      4.74407         0.550973      0.055151      0.420557
O       1.88679      9.63330      8.91298         0.223583     -0.124236     -0.211254
O      13.18808      9.46495      8.86693        -0.391103     -0.172137      1.107242
O       5.80937      2.15874      0.50131        -0.393714     -0.663784      1.014075
O       5.68516      1.88405     13.07955         0.039806      0.444191      0.145915
O       5.61946     13.27890      0.50599         0.248941      0.003779      0.821930
O       5.63909     13.14532     13.22374         0.115610      0.213040     -1.373033
O       5.64990      1.74213      4.75183         0.167383      0.391607      0.493067
O       5.64198     13.28450      4.66088         0.165675      0.235473      1.501971
O       5.78339      1.74382      8.96256        -0.124633      0.267767      0.551872
O       5.76025     13.30426      9.00135        -0.413609      0.268700      0.755577
O       5.70530      5.52133      0.39155        -0.212823      0.244489      1.070542
O       5.64622      5.68346     13.11431         0.106882     -0.181558      0.298896
O       5.57320      5.60817      4.61737         0.320871      0.254537     -0.627780
O       5.50794      5.73843      8.97599         0.396072     -0.051986     -1.027865
O       5.71140      9.43441      0.37476        -0.164728      0.386122      1.215883
O       5.61164      9.54972     13.32647         0.198154     -0.354204     -0.371499
O       5.82629      9.47764      4.57472        -0.316949      0.124571      0.970762
O       5.47054      9.50695      8.98168         0.247904     -0.308718      0.620700
O       9.35115      1.88357      0.38422         0.569146      0.005489      0.880661
O       9.59378      1.78283     13.23424        -0.327849      0.615518      0.119024
O       9.38148     13.19319      0.35714         0.179979      0.259455      0.940249
O       9.40010     13.39225     13.11781         0.592956     -0.660786      1.232194
O       9.65783      1.83305      4.59029        -0.379155      0.416670      1.070782
O       9.46463     13.35475      4.60109         0.137038     -0.321536      0.972313
O       9.44368      2.00353      8.91976         0.233301     -0.114484      0.223747
O       9.16535     13.23250      9.04034         0.851359      0.474153      0.077614
O       9.47687      5.52855      0.31438         0.350872      0.602580      1.297561
O       9.40211      5.98014     13.15773         0.336038     -0.925032      0.569893
O       9.63663      5.80570      4.61189        -0.347687     -0.432300      1.469097
O       9.31925      5.71524      8.84788         0.345614      0.060070      0.320672
O       9.68867      9.47625      0.30363        -0.361769      0.114940      1.084801
O       9.41347      9.26174     13.18911         0.306305      0.448950      0.018339
O       9.38784      9.60217      4.59324         0.356113     -0.190709      0.580751
O       9.34245      9.40186      8.87857         0.215393      0.060771      1.557540
O       3.76085      1.83148      2.75226        -0.206889      0.778830     -0.908235
O       3.85273      1.90123     15.35591         0.023527      0.290500     -0.131131
O       3.67023     13.33125      2.84309         0.646739     -0.235415     -0.949965
O       3.86120     13.25352     15.40679        -1.569779     -0.037647     -0.019954
O       0.04970      1.90672      2.69663        -0.611323      0.507131     -0.197399
O      15.16451      1.73430     15.32650         0.322598     -0.020404     -0.255322
O      15.08690     13.25336      2.64805        -0.442542     -0.052846     -0.325243
O      15.09225     13.27490     15.22393         0.224754      0.242671      0.217395
O       3.73483      1.70050      7.01612         0.736267      0.348369     -0.346930
O       3.68101     13.50009      6.88118         0.912913     -0.505729     -0.182791
O      15.15297      2.08533      6.98847        -0.192857     -1.221783     -1.271548
O      15.17775     13.14061      6.92651        -1.032283      0.757866     -0.614657
O       3.77134      1.76561     11.14470        -0.595958     -0.111195     -0.762766
O       3.70169     13.38685     11.09679         0.777483      0.021084     -0.580227
O      15.16654      1.87165     11.40248         0.244525      0.133235     -1.242704
O      15.09410     13.20334     10.93648         0.052949      0.607951     -0.137545
O       3.83741      5.64335      2.53442        -0.678475     -0.195281     -0.022011
O       3.80197      5.59331     15.30382        -0.524208      0.182939     -0.217074
O       0.06951      5.66125      2.60230        -0.550393      0.203740      0.025665
O       0.13234      5.61915     15.29292        -1.070985      0.211313     -0.324477
O       3.83600      5.68214      6.84650        -0.754925      0.115913     -0.283433
O       0.02505      5.76327      6.82577        -0.526891     -0.776133     -0.702513
O       3.75067      5.60927     11.18286        -1.054466      0.141309     -0.444986
O       0.00277      5.81343     11.01592        -0.907103     -0.161648      0.278532
O       3.83330      9.51060      2.67105        -0.035740      0.463969     -0.416307
O       3.74102      9.54484     15.45337         0.001605     -0.056941     -0.184779
O      15.15747      9.52529      2.69544         0.363317     -0.302884     -0.384521
O      15.18905      9.61690     15.28926        -0.210949     -0.457059     -0.171994
O       3.71584      9.40282      6.76229         0.866994      0.423600     -0.392689
O      15.04962      9.48656      7.02780         0.682676      0.692065     -1.147780
O       3.67178      9.54728     11.27454         1.333563     -0.867986     -1.135458
O      15.11731      9.56875     11.04306         0.029966     -0.453663      0.008538
O       7.63289      1.95348      2.77330        -0.154195     -0.458898     -0.488957
O       7.59151      1.86151     15.29901         0.335783     -0.087012     -0.096614
O       7.55843     13.31364      2.70322         0.085258      0.204798     -0.803561
O       7.53633     13.20877     15.37988         1.021515      0.005574     -0.240861
O       7.63027      1.96981      6.86161        -0.053550     -0.209551     -0.560821
O       7.52925     13.24905      6.86306         0.357860      0.262783     -0.467217
O       7.61260      1.97275     11.20910        -0.156178     -0.196599     -0.723492
O       7.59267     13.23934     11.36561        -1.233907      0.444209     -1.051716
O       7.57709      5.69584      2.60470         0.170361     -0.266791     -0.199293
O       7.58308      5.79044     15.39748         0.540166     -0.182935     -0.698796
O       7.55368      5.67500      6.75362         0.791981     -0.010439     -0.321979
O       7.47263      5.61819     11.06255         1.093534      0.000981     -0.106099
O       7.68201      9.32051      2.51385        -1.027949      0.468424     -0.484001
O       7.58250      9.36056     15.45444         0.345351      0.650123     -0.541807
O       7.52241      9.61594      6.90279        -0.932056     -0.393230     -0.645463
O       7.48457      9.47548     11.10624        -0.244198     -0.232985     -0.281354
O      11.41977      1.87797      2.52508        -0.598046      0.335595     -0.510209
O      11.36359      1.86811     15.45731         0.704293      0.346510     -0.244024
O      11.31603     13.30548      2.56074        -0.196520     -0.167731     -0.461016
O      11.31876     13.30217     15.35121        -0.010393     -0.430990     -0.407263
O      11.45922      1.84070      6.90749        -0.534359      0.505392     -0.204840
O      11.27390     13.37909      6.89126         0.714853     -0.188190     -0.173124
O      11.30970      1.91058     11.19240         0.985317      0.156429     -0.805576
O      11.26934     13.30795     11.06990         0.709659      0.004605     -0.229523
O      11.43691      5.69319      2.43797         0.430954     -0.284904     -0.163891
O      11.38890      5.73097     15.36803         0.525820     -0.513179     -0.398952
O      11.40602      5.68116      7.04120        -0.807636      0.601599     -0.867667
O      11.33799      5.78969     10.91269         0.240991     -0.357651     -0.239626
O      11.43495      9.44782      2.59261        -0.259934      0.342632     -0.304952
O      11.42188      9.25720     15.26425         0.180006      0.365480     -0.341960
O      11.25252      9.63197      6.95090         0.787664     -0.759315     -0.681503
O      11.26036      9.29692     11.07417         0.639438      1.019613     -0.100264
O       1.92070      3.85624      2.54251        -0.093774     -0.548176      0.084007
O       1.88218      3.74164     15.35180         0.104141      0.325786     -0.383525
O       1.77944     15.19283      2.81659        -0.118253      1.220687     -0.519738
O       1.99777     15.16084     15.40922        -0.517704     -0.484188     -0.200135
O      13.24800      3.79328      2.68015         0.809727      0.779835     -0.611398
O      13.42435      3.72908     15.46585        -0.674226      0.320981     -0.655278
O      13.29670      0.04681      2.59825         0.140819     -0.896393     -0.322673
O      13.07011     15.16839     15.31422         0.772646      0.133840     -0.275243
O       1.96004      3.77393      6.92190        -0.098186      0.549053     -0.502350
O       1.71696      0.02207      6.88769        -0.509872     -0.826689     -0.181799
O      13.24776      3.79261      6.92741        -0.122383      0.850353     -0.538096
O      13.28009      0.00484      6.65683         0.502774      0.114792      0.439280
O       1.79133      3.75977     11.08878         0.094029     -0.223709     -0.335630
O       1.79234     15.18503     11.24443        -0.243390      0.001111     -1.142377
O      13.32916      3.81855     11.09022        -0.255951      0.986277     -0.077124
O      13.25604      0.06893     11.21861         0.137763     -0.698750     -1.034420
O       1.97425      7.62456      2.64174        -0.482256     -0.424591     -0.248500
O       1.88328      7.63493     15.17566         0.026533     -0.745307      0.051168
O      13.28122      7.58909      2.61019         0.633435     -0.518532     -0.566816
O      13.43808      7.42373     15.24946        -0.050760      1.482348     -0.006751
O       1.77896      7.65573      6.93359         0.528616     -1.100636     -0.665188
O      13.31899      7.59740      6.90079        -0.949755      0.067442     -0.721982
O       1.98930      7.64569     11.02081        -0.635566     -0.831135      0.051471
O      13.20320      7.63867     11.17622         0.651932     -0.713390     -0.411167
O       1.84573     11.38670      2.76717         0.001837      0.524770     -0.766287
O       1.92124     11.47608     15.44012        -0.195698     -1.232930     -0.073077
O      13.20900     11.36348      2.58403         0.059902      0.186774     -0.258908
O      13.18219     11.33830     15.14464        -0.102948      0.282122      0.057319
O       1.88378     11.33622      6.77996         0.303899      1.162323     -0.133319
O      13.16620     11.45825      7.04082         0.010871     -0.233720     -0.949616
O       1.90399     11.38523     11.10271        -0.358268      0.887057     -0.485008
O      13.15073     11.40310     10.94455        -0.544252     -0.335519      0.124562
O       5.72852      3.72915      2.78887        -0.423387      1.809198     -0.242632
O       5.86479      3.80932     15.29011        -0.676215     -0.321986     -0.258947
O       5.65597      0.05916      2.61840         0.337029     -0.556081     -0.151102
O       5.70903      0.01035     15.24821         0.084397     -0.360010      0.048773
O       5.58637      3.70938      6.87235         0.427046      0.475003     -0.548745
O       5.78028     15.17774      7.00795        -0.335302     -0.458188     -0.294759
O       5.53652      3.70043     11.01797         0.600729      0.011631     -0.147212
O       5.77830     15.14990     11.33005        -0.319605      0.270897     -1.103633
O       5.60987      7.58717      2.55527         0.355402     -0.067322     -0.241667
O       5.60493      7.52052     15.44658        -0.053142      0.679738     -0.347893
O       5.57591      7.55661      6.73041         0.821065      0.697411     -0.178869
O       5.54074      7.53589     11.13640         0.065134      1.313857     -0.263975
O       5.71381     11.47255      2.63018         0.030245     -1.630134     -0.524003
O       5.70765     11.33659     15.53298        -0.084307      0.017514     -0.478390
O       5.54518     11.43906      6.85742        -0.299699     -0.837881     -0.353850
O       5.62541     11.41366     11.18401         0.150572     -0.522454     -0.570492
O       9.43682      3.80601      2.60717         0.398167     -0.032847     -0.177685
O       9.46884      3.75325     15.23903         0.316406      1.098261     -0.247193
O       9.46079      0.00813      2.58591        -0.169591     -0.871909     -0.627941
O       9.45214     15.14494     15.41581         0.101930     -0.348140     -0.213943
O       9.53661      3.83060      6.75867         0.092259      0.365165     -0.057335
O       9.43614      0.07650      6.83276         0.008924     -0.658668      0.024057
O       9.51049      3.83117     11.20009        -0.165180     -0.214193     -0.435154
O       9.41685      0.03635     11.09368        -0.083398     -0.227680     -0.580113
O       9.53720      7.53714      2.51379        -0.034449      0.511919     -0.273564
O       9.45601      7.60318     15.52896         0.629085     -0.752440     -0.518144
O       9.36440      7.74269      6.76304         0.378726     -1.940313     -0.159540
O       9.38793      7.55255     11.09111        -0.448291     -0.450553     -0.634486
O       9.34445     11.32788      2.55304         0.555057      1.163530     -0.348265
O       9.53177     11.28917     15.21309        -0.037060      0.936684     -0.134275
O       9.40696     11.44006      6.95380         0.266128      0.736894     -0.661992
O       9.32245     11.32448     11.10331         1.090295     -0.368677     -0.244040
