  # total energy = -7881.30211239 
CRSYTAL
PRIMVEC
    15.3600000000000000    0.0000000000000000    0.0000000000000000
     0.0000000000000000   15.3600000000000000    0.0000000000000000
     0.0000000000000000    0.0000000000000000    17.440000000000000
PRESSURE
1.8812 1.51825 2.00715 0.025286 -0.23101 -0.013887
PRIMCOORD
320 1
Pb       3.94428      3.78788      4.35881        -0.161473      0.041137      0.072975
Pb       3.86230      3.80986      0.01604        -0.140267     -0.224569     -0.793844
Pb       3.78894      0.03196      4.35559         0.220346     -0.322074     -0.192383
Pb       3.83012     15.29105     17.33078         0.118948      0.697808     -0.015297
Pb       0.07316      3.83427      4.33365        -0.420570     -0.310680      0.172894
Pb       0.01934      3.81317     17.43250         0.057801     -0.096379     -0.581050
Pb       0.06488      0.02973      4.38017        -0.109495     -0.430647     -0.472720
Pb      15.25581      0.09775     17.35053        -0.002838     -0.257774      0.035839
Pb       3.74902      3.86198      8.64326         0.077172      0.205604     -0.434532
Pb       3.72859     15.27578      8.68406         0.233354      0.051091     -0.235506
Pb      15.14010      3.93591      8.66645         0.725384     -0.222535     -0.104619
Pb      15.27186     15.27266      8.72599         0.096332      0.124712     -0.566194
Pb       4.01565      3.67062     13.00692        -1.088277      0.854958      0.248389
Pb       3.82162     15.35671     12.95684        -0.074724      0.223528     -0.053555
Pb       0.02414      3.77189     13.01022        -0.062468      0.436951     -0.040841
Pb      15.26430     15.19242     13.01884         0.514939      0.659994      0.486408
Pb       3.84285      7.68504      4.30754         0.685836      0.260820      0.076637
Pb       3.79596      7.67705      0.03545         0.068191      0.049642     -0.644747
Pb       0.09061      7.68902      4.27141        -0.862181      0.223935      0.460743
Pb       0.07140      7.69198      0.05243        -0.068301      0.173106     -0.559308
Pb       3.73246      7.66369      8.63446         0.196701      0.137745     -0.419382
Pb      15.21232      7.65938      8.65458         0.626925      0.288926      0.101258
Pb       3.90247      7.58961     13.08643        -0.836247     -0.239650     -0.043047
Pb      15.34344      7.67770     13.04621         0.349197     -0.042884      0.005765
Pb       3.81633     11.49962      4.34585         0.439139      0.094019     -0.209133
Pb       3.83649     11.54352     17.41215         0.100125     -0.540000     -0.132412
Pb       0.08242     11.55588      4.26713        -0.489262      0.009559     -0.079934
Pb      15.23306     11.46355     17.43390         0.239006     -0.090345      0.079907
Pb       3.85230     11.44229      8.68337        -0.102340      0.131176     -0.676643
Pb       0.03313     11.49724      8.71712        -0.176017      0.007893      0.116258
Pb       3.88657     11.36920     12.97791        -0.504449      0.002106     -0.396668
Pb       0.12315     11.43906     13.01001        -0.294755     -0.033128      0.237553
Pb       7.64054      3.81197      4.17053         0.621504     -0.023658      1.556847
Pb       7.70866      3.77664      0.06376        -0.227019      0.269357     -0.656361
Pb       7.63335     15.29729      4.39212         0.514828     -0.200115     -0.309982
Pb       7.51960     15.34447     17.38359         0.214243     -0.393808      0.073576
Pb       7.48146      3.91731      8.63523         0.597929      0.051264     -0.030154
Pb       7.66286      0.06865      8.74810        -0.051472     -0.200769     -0.679294
Pb       7.77788      3.86616     13.00566        -0.406280      0.251104      0.042984
Pb       7.70967      0.05618     12.94249        -0.101769     -0.711969      0.122979
Pb       7.71406      7.62341      4.32022        -0.312199      0.275697     -0.234678
Pb       7.57713      7.71166      0.02252         0.085792     -0.212235     -0.388706
Pb       7.74350      7.60451      8.72819        -0.210644      0.358080     -0.471454
Pb       7.73141      7.70037     13.11774        -1.056770     -0.237327      0.274144
Pb       7.63892     11.39713      4.34456         0.437334      0.392491     -0.135471
Pb       7.59553     11.63525     17.23701        -0.089643     -0.568809      1.311216
Pb       7.76835     11.55362      8.73501        -0.211505     -0.206237     -0.581547
Pb       7.73391     11.61432     12.95023        -0.145914      0.056517     -0.520265
Pb      11.50272      3.73061      4.27345        -0.139050      0.432237      0.364749
Pb      11.61431      3.85829      0.14144         0.028241      0.188647     -0.347397
Pb      11.66040     15.31576      4.36539        -0.827323     -0.243179      0.227602
Pb      11.25729     15.27584      0.02690         0.725175     -0.311919     -0.373836
Pb      11.52357      3.84712      8.61081        -0.285539      0.185322     -0.195968
Pb      11.43263      0.06701      8.71582         0.337997     -0.608705     -0.571884
Pb      11.47054      3.75509     12.99690         0.680241      0.324230      0.239223
Pb      11.42149     15.28488     13.11740         0.470047      0.238108      0.206695
Pb      11.57296      7.50736      4.34051        -0.014170      0.482899     -0.717924
Pb      11.40461      7.74202     17.41476         0.228487     -0.061724     -0.019727
Pb      11.61183      7.70146      8.63954        -0.409525      0.392985     -0.202853
Pb      11.37764      7.54090     13.16497         0.398935      0.583398     -0.165774
Pb      11.46629     11.48910      4.24065        -0.145260     -0.126444      0.318308
Pb      11.41846     11.49696     17.34915         0.418610      0.226071      0.781592
Pb      11.39500     11.41012      8.69740         0.459743     -0.047607     -0.346222
Pb      11.59193     11.49948     13.04099        -0.130078     -0.917696      0.899211
Ti       1.95396      1.88436      2.37638         0.123817     -0.095194     -0.379095
Ti       1.89315      1.89639     15.35352         0.346330      1.410413     -0.015849
Ti       1.94999     13.45482      2.24248         0.004401      0.003571      1.115417
Ti       1.91887     13.50048     15.35499        -1.194989     -0.591879     -0.952104
Ti      13.47707      1.83660      2.26779         0.007907      0.208119     -0.629042
Ti      13.30679      1.84705     15.51784         0.554310      0.017751      0.278889
Ti      13.36503     13.44393      2.34713         1.433944     -1.311833     -0.261268
Ti      13.49250     13.33513     15.38190        -1.444007      0.378848      0.931302
Ti       1.86851      1.95888      6.67179        -0.106834      0.237662      0.236189
Ti       1.89544     13.43356      6.66662         0.243573     -0.494406      1.699770
Ti      13.42492      1.87633      6.64990        -0.076635      0.121997      0.713409
Ti      13.40003     13.37826      6.69567        -0.291946      0.450166     -0.122216
Ti       1.86392      1.99719     10.93623         0.010413     -0.328876      2.417869
Ti       1.93478     13.53878     11.09877        -0.063882     -0.983741     -0.901556
Ti      13.36317      1.91916     11.06389         0.783055      0.810939      0.244970
Ti      13.43580     13.47171     11.08493        -0.190067     -1.677024     -0.823470
Ti       1.91982      5.71728      2.41559         0.498283     -0.244408     -0.407461
Ti       1.87600      5.77478     15.46681         0.535248     -0.638153      0.464711
Ti      13.50201      5.67420      2.33059        -2.063999      0.555798     -0.727979
Ti      13.33084      5.70745     15.44436         0.827991     -0.007832      0.782390
Ti       1.87495      5.79264      6.60577         0.506190      0.161886      0.607265
Ti      13.41884      5.76922      6.64401         0.170795     -0.112753      0.542430
Ti       1.88727      5.79469     10.98494         0.147468      0.241956      1.087870
Ti      13.42439      5.85181     11.05773         0.544000     -1.500159     -0.346767
Ti       1.94734      9.55948      2.26867         0.210715      1.070134     -0.661037
Ti       1.93227      9.67442     15.40150        -0.595406     -1.586645     -0.584738
Ti      13.46593      9.65187      2.32895        -1.524342     -0.824254     -0.644983
Ti      13.36872      9.52937     15.46586         0.730101      0.430209     -0.786613
Ti       1.82760      9.62467      6.68978         1.897230     -0.287752      0.410108
Ti      13.47235      9.66223      6.64363        -0.551358     -0.541724      0.416666
Ti       1.88995      9.59795     10.97985        -0.673431     -0.405819      0.349056
Ti      13.33906      9.62582     11.11460         0.670222     -0.190902     -1.031029
Ti       5.77551      1.86154      2.37168        -0.350904      0.147836      0.482814
Ti       5.79754      1.90058     15.32046        -1.137797     -0.048379      1.433932
Ti       5.74750     13.48853      2.26485        -0.061382     -0.537684      1.499073
Ti       5.65664     13.36222     15.24772         0.879517      0.484852      1.733336
Ti       5.69762      1.99306      6.72567         0.424174     -0.900228      1.549354
Ti       5.81201     13.52923      6.72523        -0.367836     -1.309651      0.238368
Ti       5.81532      1.92431     11.06307        -0.963942      0.231722     -0.162308
Ti       5.75413     13.39307     10.96825         0.677481      0.293662      1.189440
Ti       5.75923      5.71725      2.35882         0.093163      0.911005      0.533659
Ti       5.72383      5.70014     15.39227        -0.118008      0.473127      0.275108
Ti       5.70461      5.83502      6.59443         0.031421      0.074821      1.267922
Ti       5.76196      5.79524     11.05153        -0.892147      0.142876     -0.871812
Ti       5.77770      9.64403      2.31087         0.468690     -0.613734      0.780564
Ti       5.69665      9.49090     15.28671        -1.041299      0.661789      2.639492
Ti       5.76559      9.64984      6.69747        -0.196947     -0.194322     -0.080579
Ti       5.65601      9.49206     10.91532         0.572436      0.353751      0.618168
Ti       9.64154      1.80655      2.39945        -1.177663      0.014397      1.511241
Ti       9.56471      1.88028     15.38272        -0.351577      0.371208     -0.220001
Ti       9.60077     13.40894      2.30490        -0.920631     -0.883547      1.363196
Ti       9.55846     13.43185     15.39905         0.075140      0.147585      1.778431
Ti       9.57121      1.97649      6.73315        -0.742912     -0.103866     -0.320459
Ti       9.63033     13.41114      6.69657         0.138107     -0.000545     -0.987861
Ti       9.59394      1.95309     10.98426         0.520739     -0.308692      0.692444
Ti       9.74095     13.41635     10.97136        -1.641176     -0.706753     -1.061632
Ti       9.58404      5.75059      2.29095         0.249884     -0.311576      1.605631
Ti       9.55918      5.71317     15.42002        -0.720803      0.254071      1.026753
Ti       9.62330      5.80791      6.69586        -1.249749     -0.908983      0.871195
Ti       9.61258      5.80111     10.98479        -0.333274      0.295749     -1.051559
Ti       9.63871      9.57352      2.27999        -0.264702      0.578081      0.741922
Ti       9.46139      9.62853     15.41971         0.851619     -0.432030      0.969922
Ti       9.61583      9.56145      6.53749        -0.182693     -0.036631     -0.463948
Ti       9.49032      9.56625     11.10480         0.636503      0.235421     -1.525188
O       1.90633      1.78666      0.64821         0.192911      0.222350     -0.923716
O       1.94780      1.98232     13.59587        -0.203590     -0.199471     -0.199273
O       2.11273     13.45785      0.50704        -0.518541      0.223149     -0.753262
O       1.81870     13.62852     13.56154         0.421339     -0.560500      0.177027
O      13.39812      1.85658      0.43006        -0.007932     -0.187845      1.298692
O      13.31832      1.84808     13.80174        -0.035459      0.362005     -1.932301
O      13.59983     13.40055      0.62587        -0.245780      0.089983     -0.801035
O      13.34499     13.28030     13.63493         0.351213      0.204758     -0.485253
O       1.83224      1.99046      4.89020        -0.007248     -0.296749     -0.040616
O       1.88240     13.51765      4.95826         0.283448     -0.403809     -1.328702
O      13.46881      1.93326      4.92749        -0.109032     -0.492887     -1.278485
O      13.32502     13.44793      4.93568         0.181334      0.124203     -0.400415
O       1.89669      1.94014      9.25828         0.281164     -0.045273     -2.602213
O       1.83487     13.51518      9.33047        -0.106914      0.217037     -0.376635
O      13.26119      1.89376      9.33306         0.073813     -0.009478     -0.770891
O      13.34293     13.51084      9.30472         0.335265      0.090452      0.573602
O       1.89488      5.90307      0.67699         0.219307     -0.417474     -0.346675
O       1.83728      5.67979     13.76406        -0.306106      0.075510     -1.305147
O      13.22471      5.60711      0.54385         0.718828      0.265754      0.482891
O      13.48188      5.70145     13.71866        -0.385045     -0.103561     -0.548772
O       1.75098      5.71632      4.85537         0.216229      0.133880     -1.407489
O      13.42471      5.62910      4.91951        -0.125658      0.486536     -0.752067
O       1.83967      5.92310      9.24378         0.061358     -0.665236     -0.454424
O      13.53892      5.77422      9.24491        -0.486745     -0.035143     -0.077920
O       1.95672      9.51398      0.48948        -0.020249     -0.203103      0.378611
O       1.92818      9.61197     13.60358         0.050105      0.178274      0.028267
O      13.49999      9.56374      0.54954        -0.423067     -0.078993     -0.380214
O      13.38697      9.67476     13.68364         0.133938     -0.277038     -0.072573
O       1.81806      9.72605      4.95861         0.208394     -0.214612     -2.092479
O      13.51295      9.56278      4.93882         0.022671      0.158872     -1.512562
O       1.73201      9.37909      9.24445         0.400635      0.786089     -0.455268
O      13.38379      9.62290      9.31501         0.098771     -0.250312      0.046397
O       5.82133      1.84404      0.64811        -0.133430      0.285268     -1.495327
O       5.80923      2.02233     13.59960         0.297686     -0.240442     -1.574164
O       5.62884     13.48421      0.54015        -0.142836      0.046254     -1.132930
O       5.63620     13.37656     13.54380         0.427702     -0.267254     -1.816576
O       5.65112      1.94470      5.03242         0.269151     -0.243222     -2.151501
O       5.70895     13.38678      4.98112         0.093414      0.481704     -0.328874
O       5.78057      2.02758      9.34596         0.033844     -0.246878     -1.286163
O       5.92302     13.45058      9.27999        -0.452183      0.061068     -1.454755
O       5.83999      5.74864      0.62719        -0.147618     -0.064451     -1.296166
O       5.74197      5.75527     13.63830         0.177172     -0.114299     -0.737156
O       5.79431      5.74663      4.88313        -0.095883      0.007767     -1.445362
O       5.58014      5.94362      9.28181         0.354600     -0.591905      0.214853
O       5.80151      9.60699      0.58167        -0.249419     -0.340481     -0.337709
O       5.62494      9.37904     13.57987         0.170344      0.993071     -1.386561
O       5.74474      9.76428      4.92585        -0.287534     -0.211021     -0.337786
O       5.65690      9.50880      9.16613         0.091235     -0.118448     -0.080158
O       9.54146      1.84227      0.70340        -0.089594     -0.063952     -2.011219
O       9.54653      1.93274     13.58240        -0.068103     -0.191217      0.398535
O       9.55861     13.47558      0.58605        -0.030820      0.090175     -1.622231
O       9.53440     13.32557     13.70739         0.005157      0.194445     -2.083149
O       9.47090      1.96016      4.98712         0.247102     -0.134208     -0.258649
O       9.61673     13.36718      4.89411         0.066504      0.228119      1.004967
O       9.62345      1.76413      9.25978         0.024025      0.545196     -0.411744
O       9.65239     13.31508      9.13526         0.411890      0.254689      1.258853
O       9.55252      5.84031      0.57756        -0.036627     -0.468183     -1.088983
O       9.55795      5.80837     13.66897         0.059512     -0.196226     -1.150838
O       9.53173      5.64709      4.98609         0.244288      0.335556     -1.500041
O       9.59539      5.97494      9.20129         0.316929     -0.183337      1.254396
O       9.55986      9.64255      0.51239        -0.073998     -0.465675     -0.253061
O       9.56967      9.52714     13.68224        -0.567085      0.261987     -0.802350
O       9.63500      9.73665      4.77040        -0.119306     -0.707134      0.183942
O       9.58135      9.60728      9.30169         0.044731     -0.385653      0.647221
O       3.85889      1.97600      2.76535        -0.558009      0.081776      0.344402
O       3.88787      1.98190     15.74669         0.213843     -0.796659      0.225636
O       3.84453     13.57793      2.79042        -0.795122     -0.932107     -0.059644
O       3.77021     13.45905     15.63119        -0.294388     -0.359917      0.451649
O      15.33201      1.74768      2.64086        -0.472209      0.375655      0.276217
O      15.32113      1.98996     15.82062         0.098381     -0.354454      0.085094
O       0.03710     13.39525      2.76801         0.627010      0.444878     -0.103753
O      15.30314     13.30133     15.66117         1.317214      0.831372      0.474495
O       3.77795      1.88791      7.00994        -0.210041      0.393043      0.717447
O       3.85769     13.27442      7.19600        -0.400989      0.955671     -0.216065
O      15.29740      1.92455      7.00170         0.735160     -0.322904      0.616274
O      15.31996     13.39524      6.99243         0.139052      0.395240      0.656888
O       3.89448      1.88994     11.34920        -0.688994      0.217832      0.383938
O       3.85027     13.59438     11.27131         0.191640     -0.098536      0.378175
O      15.28932      1.99091     11.16641        -0.467989     -0.453284      0.881736
O      15.34577     13.28186     11.39334        -0.816495      0.962153      0.325729
O       3.90016      5.72522      2.67835        -2.060957      0.144097      0.532278
O       3.84037      5.58804     15.75341         0.011921      0.696392      0.774812
O      15.30308      5.78070      2.67691         1.223268     -0.389363      0.270365
O      15.33843      5.75236     15.94063        -0.638473     -0.227962      0.008267
O       3.79451      5.69343      6.93331        -0.557292     -0.263562      0.508788
O       0.01557      5.75667      7.01541        -1.299352      0.122574      0.340410
O       3.80202      5.81950     11.39409        -0.410893     -0.592499      0.156798
O      15.27233      5.69206     11.50178         1.161956      0.133943      0.024906
O       3.87108      9.47022      2.67899        -0.905909      0.242223      0.139959
O       3.78045      9.65829     15.83187         0.918722     -0.258599     -0.000391
O      15.25626      9.71013      2.49448         2.956714     -0.786486      1.098078
O      15.34981      9.44942     15.81258        -0.388572     -0.056905      0.205149
O       3.76555      9.68425      7.03873         0.547424      0.280479      0.427303
O       0.03944      9.56590      6.98391        -2.389228      0.224309      0.954312
O       3.76020      9.54017     11.36715         1.111375      0.162664      0.150381
O       0.03984      9.78684     11.40866        -0.806984     -0.767590      0.285987
O       7.61999      1.77777      2.76026         0.840232      0.136941      0.376307
O       7.61922      1.71474     15.83700         0.219965      1.008552     -0.104656
O       7.63501     13.45723      2.63507        -0.751628      0.345113      0.333669
O       7.59115     13.40166     15.73909        -0.032291      0.099109     -0.277900
O       7.64490      1.94770      7.20071         0.099045     -0.107172     -0.033842
O       7.73948     13.50043      7.08172        -0.297108     -0.203996      0.173180
O       7.76872      1.87821     11.49870        -0.156021      0.307215     -0.290155
O       7.78773     13.40233     11.22802        -0.648535     -0.180071      1.226351
O       7.61729      5.75345      2.71790         1.576962      0.025926      0.114130
O       7.67424      5.84302     15.80296        -0.500405      0.042762      0.317235
O       7.54923      5.77099      7.20982         0.459500      0.679144     -0.427037
O       7.67103      5.78508     11.19656         0.518364     -0.113634      0.741808
O       7.76529      9.56534      2.79743        -1.337854     -0.230598     -0.310378
O       7.50883      9.58951     15.85748         1.522232      0.002579     -0.723035
O       7.68982      9.48408      6.91952        -0.479705      0.017539      0.436099
O       7.57855      9.52022     11.25347         0.134839      0.251042      0.789517
O      11.47552      1.95285      2.76366         1.019751     -0.771620     -0.177415
O      11.37352      1.64787     15.74203        -0.050982      1.210716      0.417105
O      11.52318     13.35373      2.62174        -0.438260      0.170571      0.301719
O      11.50502     13.36307     15.89257        -0.496222      0.305064     -0.418085
O      11.52676      2.10055      6.97244        -0.756502     -0.504940      0.596729
O      11.52212     13.39021      7.13000        -0.493362      0.199253     -0.009270
O      11.46180      1.83158     11.46746        -0.225506      0.352497      0.271776
O      11.53063     13.25888     11.66011        -0.380222      1.316877     -1.304472
O      11.51228      5.65238      2.69355        -0.366940     -0.257478      0.442670
O      11.40548      5.62648     15.84680         0.328728      0.128184     -0.011979
O      11.46391      5.77226      7.16373         1.588397     -0.102815     -0.396266
O      11.55882      5.79803     11.48049        -1.482788      0.410651      0.000866
O      11.50664      9.60524      2.63272         0.112554      0.015601      0.345494
O      11.44914      9.76785     15.85487        -0.227226     -1.029262     -0.366640
O      11.51068      9.57092      6.87276         0.240805     -0.215427      0.905199
O      11.47550      9.51683     11.40711        -0.379174     -0.423717      0.434105
O       1.82962      3.79135      2.66735        -0.013915      1.139412      0.253775
O       2.08300      3.71723     15.92287        -1.539262      1.061980      0.391335
O       1.94356      0.03377      2.70904        -0.055918     -1.252775      0.658998
O       1.80430      0.04359     15.68433         0.326644     -1.284244      0.625513
O      13.43241      3.69020      2.66782         0.240654      0.659749      0.027583
O      13.35077      3.78133     15.94068        -0.326256      0.200942     -0.150794
O      13.38338     15.28396      2.73075        -0.054572      1.295536      0.254997
O      13.31672     15.29142     15.73873         1.052871     -0.568448      0.475719
O       1.85370      3.86435      7.03800         0.114648     -0.540893      0.372903
O       1.96207     15.32007      7.05465        -0.442556      0.352639      0.240753
O      13.44693      3.85032      6.99043        -0.081451      0.401413      0.888880
O      13.37577      0.00526      7.12676        -0.083570     -0.103710     -0.034485
O       1.83997      3.84878     11.45076         0.518696      0.217249     -0.497252
O       1.79386      0.07254     11.43868         0.117061     -0.149060      0.106192
O      13.36510      3.89100     11.49365        -0.421335     -1.509748     -0.074305
O      13.32610     15.28720     11.59648         0.254280      0.676398     -0.492419
O       1.83400      7.72010      2.74494         0.202050     -0.683023      0.176288
O       1.99148      7.64794     15.76571        -0.004456     -0.138467      0.621824
O      13.37218      7.56898      2.71371         0.220457      0.541018      0.257524
O      13.17877      7.62954     15.62580         0.191661      0.029531      0.815138
O       1.90687      7.69032      6.96330         0.027234     -0.596939      0.015124
O      13.41014      7.71499      7.03064         0.033718     -0.808956      0.108915
O       1.84625      7.68915     11.44675        -0.370897     -0.397855      0.255884
O      13.54522      7.64277     11.37854        -0.196315      1.404989      0.532113
O       2.00975     11.45947      2.58595        -0.097331      0.722958      0.411140
O       1.86235     11.45992     15.67401         0.056012      2.206614      0.447509
O      13.47194     11.50705      2.75809        -0.306850      0.222174      0.139209
O      13.50931     11.43118     15.94368        -0.609431      0.578765     -0.356141
O       1.82798     11.49061      7.18191         0.130442      1.002176      0.118287
O      13.35702     11.51933      7.07707         0.576242     -0.239244      0.274698
O       2.02090     11.57933     11.35975         0.175177     -0.225981      0.438383
O      13.32592     11.46094     11.41811         0.287035      0.817542      0.207563
O       5.74804      3.81671      2.83852        -0.037283     -0.211409     -0.668697
O       5.79162      3.86380     15.75178         0.738131     -1.393603      0.555456
O       5.59127      0.03004      2.70631         0.678969     -0.808014      0.534395
O       5.64208     15.27316     15.62490         0.299602      0.492354      0.325227
O       5.72871      3.84270      6.99927        -0.334138      0.552841      0.785296
O       5.74725      0.02957      7.13546        -0.093501     -0.215377      0.208815
O       5.81428      3.86546     11.44037         0.133312     -0.081838      0.194548
O       5.80658      0.04819     11.41427         0.472298     -0.846503      0.270902
O       5.74862      7.67281      2.84081         0.267011      0.021115     -0.197512
O       5.57724      7.67919     15.75082         0.409226     -0.409598      0.432125
O       5.46977      7.68776      6.89727         0.820992      0.413406      0.136781
O       5.69584      7.65535     11.54550         0.344881      0.260758     -0.391791
O       5.62108     11.50804      2.63425         0.263124      0.555294      0.265090
O       5.67802     11.48345     15.89857        -0.210270      0.438896     -1.168963
O       5.81930     11.55599      7.12984         0.168213     -0.358616      0.420769
O       5.74996     11.48382     11.33781        -0.349065     -0.159419      0.265724
O       9.51527      3.77201      2.79502         0.145619      0.257948     -0.758446
O       9.38963      3.81288     15.77088         0.298673     -0.972663      0.097788
O       9.64457     15.22584      2.80174         0.030418      1.612121      0.279082
O       9.45062     15.33914     15.86858         0.424451     -0.557153     -0.220278
O       9.50063      3.94963      7.20450         0.295776     -1.346655      0.274945
O       9.61553      0.02432      7.02870         0.305551      0.066830      0.339824
O       9.61994      3.89737     11.34625         0.037734     -0.606766     -0.039400
O       9.66070     15.22847     11.39978         0.052447      1.112700      0.075597
O       9.66741      7.62912      2.70284        -0.260426     -0.119679      0.169257
O       9.57810      7.71031     15.80527         0.165083      0.261104      0.023137
O       9.60407      7.64649      6.97541        -0.070347      0.839771      0.353948
O       9.40891      7.66552     11.64248         1.540279     -0.324133     -0.865378
O       9.49065     11.52635      2.73402         0.646961     -0.314603     -0.277826
O       9.56560     11.54968     15.86137        -0.792689     -0.474652     -0.393039
O       9.60478     11.38585      6.99712        -0.288241      1.546335      0.695028
O       9.54984     11.45734     11.41398         0.065633      0.213946      0.361863
