  # total energy = -7882.27076958 
CRSYTAL
PRIMVEC
    15.3600000000000000    0.0000000000000000    0.0000000000000000
     0.0000000000000000   15.3600000000000000    0.0000000000000000
     0.0000000000000000    0.0000000000000000    17.440000000000000
PRESSURE
3.24483 2.99013 5.86963 -0.291221 -0.435722 0.025409
PRIMCOORD
320 1
Pb       3.80393      3.84886      4.37719        -0.097572     -0.190318     -0.075330
Pb       3.95892      3.81446     17.33868        -0.715234     -0.362224      0.370973
Pb       3.82169     15.34268      4.32248        -0.164593     -0.018008      0.369837
Pb       3.89927      0.02972     17.39525        -0.124243     -0.180510      0.195513
Pb      15.31333      3.82982      4.38791         0.391993     -0.153925      0.085014
Pb       0.07531      3.83481      0.02709        -0.244288      0.099744     -0.134573
Pb       0.01877     15.31334      4.31451         0.097507      0.007503      0.212514
Pb      15.15607     15.32340     17.41548         0.725746     -0.181787      0.748994
Pb       3.78487      3.91886      8.56348         0.040827     -0.146908      0.538730
Pb       3.82331     15.32594      8.79798         0.078200      0.230311     -0.413152
Pb      15.11389      3.87422      8.59935         0.655531      0.063849      1.117879
Pb      15.28855      0.13363      8.65778         0.450868     -0.378314      0.524161
Pb       3.87956      3.77039     12.94830        -0.151666      0.183363      0.792093
Pb       3.78681     15.24335     12.98578        -0.075771      0.473409     -0.078790
Pb      15.31485      3.71842     13.08421         0.518638      0.380543     -0.049394
Pb      15.35406      0.03613     12.92379         0.380083     -0.680278      0.629343
Pb       3.90126      7.70141      4.26637        -0.192358     -0.425095      0.052760
Pb       3.74092      7.66821      0.02335        -0.029583     -0.201102     -0.276308
Pb       0.14494      7.67575      4.29439        -0.437075     -0.115634      0.353331
Pb      15.34612      7.79041     17.33063        -0.208208     -0.724570      0.315537
Pb       3.94342      7.61153      8.68651        -0.580584      0.385667     -0.076285
Pb      15.33358      7.62689      8.66812         0.033176      0.429821     -0.048245
Pb       3.83082      7.65739     13.06303        -0.275587     -0.229593     -0.081304
Pb       0.04742      7.69355     13.06438        -0.049723     -0.249012      0.187652
Pb       3.69629     11.47364      4.30052         0.024498      0.167924      0.282832
Pb       3.97188     11.34271     17.31829        -0.674913      0.781369      0.577560
Pb       0.12412     11.62451      4.17752        -0.348146     -0.350403      0.813321
Pb      15.30449     11.45921     17.33888        -0.066439      0.404980     -0.062196
Pb       3.78869     11.59115      8.70292         0.260928     -0.575431      0.029960
Pb       0.00097     11.38903      8.64543        -0.273135      0.280774      0.159230
Pb       3.95145     11.51910     12.99102        -0.878713     -0.395955      0.124541
Pb       0.07479     11.48066     13.11303         0.061667      0.170226     -0.113268
Pb       7.67565      3.73309      4.37886         0.206080      0.235331     -0.199432
Pb       7.73419      3.90783     17.25272        -0.932320     -0.616120      1.602680
Pb       7.67067      0.06134      4.30205        -0.011979     -0.938798      0.197802
Pb       7.46640     15.34853     17.31932         0.726694     -0.333856      0.907165
Pb       7.65744      3.81594      8.67065         0.066541      0.242771      0.561448
Pb       7.69271     15.27608      8.61900        -0.430545     -0.147578      0.199666
Pb       7.79390      3.93160     13.20614        -0.723841     -0.081375     -0.571155
Pb       7.71995      0.09745     13.01753        -0.835734     -0.417493      0.077742
Pb       7.56241      7.57568      4.26446         0.225752      0.032720      0.454467
Pb       7.66288      7.63535     17.42147        -0.231121      0.325223     -0.513811
Pb       7.60408      7.81344      8.61490         0.423143     -0.562450      0.496170
Pb       7.63526      7.62716     12.99349         0.212991     -0.348834      0.235130
Pb       7.65409     11.42605      4.32975         0.393280      0.382988      0.253544
Pb       7.60096     11.62057     17.29955        -0.205957     -0.588752      0.915662
Pb       7.73271     11.47235      8.68173        -0.848546      0.474107      0.265480
Pb       7.84468     11.63335     13.06731        -0.829783     -0.633772     -0.269427
Pb      11.58201      3.75309      4.34668        -0.496826      0.468090      0.093785
Pb      11.51633      3.83045      0.00561        -0.000392     -0.342675     -0.008998
Pb      11.55102      0.03400      4.22670        -0.162117     -0.770634      1.036482
Pb      11.45455     15.32461     17.21778        -0.287456     -0.297828      1.093662
Pb      11.57706      4.00879      8.65456        -0.435517     -0.743439      0.441230
Pb      11.50282     15.27816      8.62605        -0.603938      0.708510      0.843282
Pb      11.52712      3.73887     13.18704        -0.177821     -0.065159      0.109268
Pb      11.41563     15.33349     13.00870         0.650487      0.210941      0.747504
Pb      11.57462      7.69501      4.21791        -0.313060     -0.302712      0.950720
Pb      11.42957      7.59526     17.43295         0.055974      0.450320     -0.170315
Pb      11.55379      7.65992      8.64531        -0.310990      0.411122      0.166687
Pb      11.43541      7.70557     12.98216        -0.390271     -0.166717      0.602783
Pb      11.55944     11.40971      4.37546        -0.416000      0.181097     -0.028853
Pb      11.41022     11.48767     17.36037         0.104931      0.308502      0.039070
Pb      11.48798     11.51046      8.79852        -0.034637     -0.298868     -0.182052
Pb      11.48798     11.48394     12.94479        -0.187801     -0.251228      0.596899
Ti       2.00080      1.88141      2.34844        -0.361541      0.384096      1.361903
Ti       1.98707      1.86963     15.38379        -0.172242      0.217849      2.284469
Ti       1.92879     13.52097      2.19096        -0.708916     -0.986779      1.091850
Ti       1.86699     13.49765     15.51452         0.177841     -1.482191     -1.843041
Ti      13.55312      1.91212      2.43643        -0.404548     -0.194811     -0.119947
Ti      13.55471      1.90066     15.49836        -1.494317      0.149003     -1.061081
Ti      13.36380     13.37288      2.37697         0.533362      0.150706      0.451610
Ti      13.44483     13.42033     15.34237        -0.981965     -0.260825      0.861138
Ti       1.91062      1.97474      6.78370        -0.013609     -0.853848     -0.745863
Ti       1.81012     13.41383      6.81492         0.221607      0.265316      0.556214
Ti      13.42074      1.86735      6.74492        -0.559363      0.980630     -0.666489
Ti      13.34218     13.44676      6.76609         0.571421     -0.652015     -0.256228
Ti       1.95700      1.98529     10.97828        -0.658634     -0.892608      1.615768
Ti       1.83937     13.38158     11.03594         0.266808      0.374168      0.880327
Ti      13.40524      1.85535     11.18394        -0.272586      0.490014     -2.397051
Ti      13.37682     13.34489     11.13396         0.424395      0.228738      1.346791
Ti       1.87758      5.70239      2.37863        -0.092268      0.091960      1.877864
Ti       1.81816      5.69730     15.38237         0.727426      0.261731      0.856696
Ti      13.40149      5.77248      2.35101         0.364457     -0.371764      0.539035
Ti      13.39574      5.73590     15.41768         0.091243     -0.720645      1.237411
Ti       1.76486      5.73930      6.64662         1.403331      1.325266      1.207286
Ti      13.37430      5.84619      6.62912         0.195414     -0.134360      0.393237
Ti       1.87066      5.74205     11.02933         0.020337     -0.063928      2.591811
Ti      13.42199      5.63047     11.29723         0.301116      0.668855     -1.503816
Ti       1.90174      9.56699      2.33639         0.582986      0.118061      0.184354
Ti       1.85896      9.58908     15.46628        -0.165273      0.042600      1.152826
Ti      13.47007      9.54638      2.35369        -0.260039      0.389344      0.103097
Ti      13.28501      9.53596     15.39827         0.141307      0.590059      1.469948
Ti       1.95640      9.58428      6.68138        -1.053130     -0.604074      1.464731
Ti      13.42867      9.68054      6.63489        -0.422043     -0.308690      2.067133
Ti       1.88269      9.56620     11.02710         0.344812      0.000216      1.756877
Ti      13.37765      9.45975     11.15020         0.109615      0.652053     -0.295696
Ti       5.78116      1.83926      2.41096        -0.359231     -0.421684      0.742663
Ti       5.76546      1.88669     15.34077        -0.073152     -0.439554     -2.015791
Ti       5.68860     13.29251      2.44019         0.708390      1.181840      0.315500
Ti       5.64478     13.36202     15.22382        -0.180080      0.250106      2.047159
Ti       5.74300      1.93463      6.71666        -0.490769     -0.169631      1.122475
Ti       5.57035     13.48015      6.60493         1.269163     -0.675985      1.829116
Ti       5.73678      1.89453     11.06442        -0.130240      0.075581     -0.232101
Ti       5.69117     13.37295     11.01625         1.132899      0.816743      0.761941
Ti       5.72634      5.62438      2.25491         0.043116      0.124141      2.060358
Ti       5.61303      5.71307     15.46168         0.631378      0.454976      1.552130
Ti       5.76557      5.80326      6.75771        -0.578470      0.090140      0.101727
Ti       5.71317      5.70200     11.02896         0.361206      0.370571      1.651791
Ti       5.81179      9.52127      2.34156        -0.855989      0.497135      2.262135
Ti       5.67236      9.48193     15.30531         0.773404      0.187262      2.706865
Ti       5.68257      9.62937      6.59687         0.062157      0.111886      1.857771
Ti       5.76261      9.57672     11.08573        -1.275019     -0.451666      0.442888
Ti       9.66038      1.90993      2.42587        -0.802454     -0.451354     -0.187397
Ti       9.57247      1.85158     15.48479         0.100140      0.745504      0.917298
Ti       9.59768     13.31890      2.41085        -0.753723      0.598176     -0.320009
Ti       9.45658     13.41039     15.39700         1.106583     -0.238533      0.037006
Ti       9.57209      1.91649      6.70978         0.122606      0.294739     -0.578206
Ti       9.51670     13.37278      6.66750        -0.274475      0.104922      0.992930
Ti       9.55952      1.93652     11.11636        -0.002415     -0.084852      1.358065
Ti       9.54621     13.42139     11.10052        -0.823104      0.113423     -0.454298
Ti       9.50288      5.78302      2.30538         1.273386     -1.338676      0.370971
Ti       9.55173      5.74110     15.49033        -0.269543      0.410609     -1.093531
Ti       9.54154      5.72767      6.65240         0.253171      0.266939      2.840855
Ti       9.67079      5.65300     11.10775        -1.151442      0.696889     -0.326122
Ti       9.57138      9.51603      2.34632         0.600771      0.785777     -0.026495
Ti       9.47456      9.58939     15.40751        -0.350244     -0.893199     -0.103460
Ti       9.59051      9.59239      6.73156         0.213042     -0.034806     -0.241219
Ti       9.47514      9.52682     10.98624         0.918888     -0.368324      0.339394
O       2.05934      1.88522      0.64348        -0.114701      0.085441     -1.522769
O       2.01151      1.85302     13.71401        -0.283616     -0.215883     -2.067193
O       1.81735     13.45661      0.48985         0.311266     -0.064307     -1.375485
O       1.80093     13.47212     13.69395         0.104468      0.023700      0.533258
O      13.56348      1.91826      0.69568        -0.366046      0.036245     -0.735520
O      13.45741      1.85798     13.71041         0.101350      0.283578      0.015885
O      13.34570     13.37132      0.66769         0.008086      0.068469     -1.336856
O      13.47565     13.46800     13.63649        -0.040939     -0.087793     -0.970827
O       1.94447      1.91485      5.04677        -0.133611      0.151243     -0.668506
O       1.93815     13.29135      5.11178        -0.196204      0.257521     -1.592888
O      13.54553      1.85336      4.98802        -0.278984     -0.103345     -0.079257
O      13.47062     13.39040      5.05202        -0.224875      0.159278     -1.139682
O       1.90007      1.90751      9.28818         0.051571      0.074429     -2.058812
O       1.96352     13.31394      9.30916        -0.277390      0.140042     -0.836531
O      13.39038      1.96155      9.33948         0.190223     -0.242070      0.795465
O      13.21412     13.32855      9.45032         0.152258      0.438248     -1.857237
O       1.78942      5.68675      0.70154         0.216245     -0.305097     -2.303379
O       1.89594      5.80336     13.69304        -0.246556     -0.232137     -1.435872
O      13.42663      5.68853      0.61730         0.038590      0.119846     -0.825285
O      13.50716      5.55473     13.72077        -0.337484      0.267221     -1.259477
O       1.78464      5.71684      4.93640         0.202964      0.024124     -1.601465
O      13.38477      5.84049      4.92739         0.168579     -0.236745     -1.111288
O       1.77515      5.86611      9.35758         0.040589     -0.043959     -2.148120
O      13.35458      5.63876      9.49756         0.105671      0.073712     -0.272689
O       1.91388      9.42602      0.61626        -0.364426      0.475623     -1.939259
O       1.79018      9.52114     13.80130         0.143428     -0.003517     -2.983889
O      13.36539      9.45547      0.61259         0.253756      0.228899     -0.751388
O      13.26763      9.51082     13.70954        -0.068034      0.059412     -1.692945
O       1.88865      9.67503      4.99324         0.201012     -0.202808     -2.762134
O      13.33255      9.63899      4.95334         0.136814      0.012339     -1.850425
O       1.82441      9.62127      9.34438        -0.045998     -0.250187     -2.103870
O      13.28763      9.51965      9.42607         0.294674      0.039795     -1.072234
O       5.73620      1.62800      0.71759        -0.083488      0.446663     -1.976905
O       5.62961      1.87552     13.55682         0.418622     -0.085733      0.641928
O       5.80081     13.29381      0.71533        -0.228214     -0.050279     -1.176008
O       5.69596     13.37201     13.53003         0.159739     -0.156967     -1.569887
O       5.71321      1.83582      4.98577         0.116393      0.342460     -0.831150
O       5.52535     13.47618      4.90319         0.141963      0.027463     -1.361569
O       5.66954      2.03803      9.29527         0.072763     -0.386977      0.181703
O       5.68002     13.39121      9.28664        -0.113973      0.063294     -0.580447
O       5.69407      5.70946      0.57120        -0.003513     -0.042779     -2.143962
O       5.57545      5.70735     13.80037         0.279873      0.041004     -2.573514
O       5.77839      5.92892      5.03027         0.163795     -0.356521     -1.247292
O       5.67991      5.76607      9.31227        -0.076157      0.143113     -1.374015
O       5.64798      9.52107      0.68439         0.134017      0.350253     -2.830357
O       5.68616      9.48851     13.64326         0.014674      0.227150     -2.775845
O       5.73595      9.38770      4.90452         0.003224     -0.061679     -1.669363
O       5.68243      9.50058      9.37182         0.070342     -0.079731     -1.394631
O       9.60176      1.68865      0.71567         0.092264      0.325236     -0.948460
O       9.55745      1.98362     13.77258        -0.095288     -0.139777     -1.474655
O       9.48491     13.37764      0.65103         0.258569     -0.016791     -0.582767
O       9.43022     13.30058     13.63310         0.075009      0.320542     -0.128036
O       9.56571      2.06731      4.94239        -0.279650     -0.067462     -0.201130
O       9.57672     13.09469      4.97713         0.044190      0.431406     -0.744319
O       9.57617      1.92999      9.45911        -0.146353     -0.187692     -2.922966
O       9.44614     13.50609      9.36079         0.450867      0.028212     -0.440618
O       9.39899      5.76238      0.54728         0.589943      0.390200     -0.612084
O       9.43177      5.67926     13.71655         0.375668     -0.312167     -0.266696
O       9.57590      5.55308      4.99486        -0.245999      0.105673     -2.466407
O       9.63889      5.58317      9.35660         0.317774      0.434412      0.237284
O       9.51431      9.44899      0.61340         0.095563     -0.050883     -0.875480
O       9.47396      9.54424     13.66498         0.192813      0.408636     -0.809676
O       9.65135      9.73261      4.98256        -0.249117     -0.050376     -0.405585
O       9.58429      9.52965      9.24816        -0.250353      0.010597     -0.554733
O       3.85213      1.82881      2.80811         0.129066      0.293301      0.181141
O       3.94229      1.88121     15.83225        -1.478694     -0.413940      0.418878
O       3.73099     13.52053      2.68633         0.840650     -0.577959      0.173363
O       3.78303     13.18210     15.68888         0.452544      0.977497      0.308012
O       0.04619      1.89230      2.82962        -0.111060      0.114697     -0.059289
O       0.00656      1.81240     15.86903         0.805059      0.303228     -0.132671
O       0.01827     13.37242      2.65992        -0.154064      0.369662      0.337782
O      15.29364     13.49940     15.86911        -0.535689     -0.482196      0.078093
O       3.76741      2.02128      7.11034         0.894027     -0.151443      0.324596
O       3.77265     13.38698      7.24067        -0.152496      0.827986     -0.176811
O      15.35197      1.98892      7.16085        -0.896910     -0.699679      0.170897
O      15.27337     13.36271      7.15649        -0.053321      0.272727      0.466354
O       3.78540      1.80243     11.42867         0.335348      0.447894      0.049492
O       3.82663     13.35232     11.43725        -0.758576     -0.038806      0.085946
O       0.01764      1.83132     11.40044        -0.588579      0.585056      0.357183
O      15.31454     13.35148     11.44147        -0.119920      0.188902     -0.095977
O       3.88111      5.73819      2.76008        -0.419374     -0.066530      0.089647
O       3.75500      5.64185     15.86322         0.105936      0.169665      0.421720
O      15.33742      5.65114      2.80515         0.219059      0.393146     -0.055116
O      15.30284      5.68766     15.82050        -0.293870     -0.029097      0.281766
O       3.74312      5.89621      6.99407         0.232711     -0.410034      0.551200
O      15.25302      5.82826      7.13661        -0.497433     -0.419095      0.049915
O       3.80036      5.73418     11.51216        -0.408433      0.102679     -0.453771
O      15.32056      5.65891     11.60027         0.361595      0.094220     -0.041233
O       3.81168      9.55116      2.68203         0.356050     -0.432318      0.590455
O       3.73107      9.55719     15.83694         1.013242     -0.079706      0.080531
O       0.02493      9.56027      2.77295        -0.228416      0.234597     -0.148323
O      15.24958      9.58188     15.73972        -0.670499     -0.476359      0.686125
O       3.76968      9.45336      7.05846         1.077750     -0.106021      0.173295
O      15.30168      9.62794      7.02093        -0.569694      0.377468      0.511476
O       3.83397      9.52241     11.45259        -1.039927      0.210875      0.273569
O      15.24956      9.65950     11.49037         0.674787     -0.583447      0.243591
O       7.66125      1.89579      2.87737         0.238813      0.167090     -0.163894
O       7.61544      1.88794     15.84771         0.559801     -0.169556     -0.009332
O       7.72016     13.30873      2.81239        -1.093790      0.058584      0.423143
O       7.53126     13.36698     15.78287         0.493672      0.047724     -0.249424
O       7.64264      1.97036      7.10651        -0.513764     -0.065747     -0.004555
O       7.53800     13.37741      7.09224         0.113025      0.061937     -0.143714
O       7.61333      1.83054     11.49717         0.427455      0.262287     -0.061580
O       7.67698     13.42705     11.39995        -0.724672      0.057264      0.674854
O       7.70898      5.59205      2.69005        -1.223443      0.404044      0.572944
O       7.64231      5.75201     15.81995        -0.872374     -0.264783      0.254446
O       7.64808      5.80604      7.20084         0.513244     -0.215563     -0.434171
O       7.57681      5.65102     11.51756         0.744103      0.528816      0.032170
O       7.71614      9.61684      2.74314        -1.010847     -0.058627      0.218708
O       7.59654      9.47784     15.76132        -0.380731      0.174529      0.353531
O       7.60273      9.59230      7.06815        -0.002945      0.374172      0.050952
O       7.61168      9.45976     11.31105         0.911051     -0.092228      0.605684
O      11.53993      1.89562      2.93555         0.630080      0.024272     -0.837618
O      11.45952      1.97395     15.87373         0.155878     -0.669773      0.127314
O      11.48931     13.46444      2.79898         0.381522     -0.258665      0.056442
O      11.41123     13.37199     15.66246        -0.093074      0.350615      0.475808
O      11.39730      1.89926      7.00927         1.566184     -0.110069      0.401554
O      11.40802     13.49628      7.20704         0.162889     -0.326480     -0.427787
O      11.47241      1.96927     11.49963         0.324668     -0.390130      0.574363
O      11.38552     13.45889     11.59833         1.130840     -0.485941     -0.189460
O      11.51066      5.86741      2.67478        -0.151015     -0.392431      0.005005
O      11.42315      5.62299     15.78195         1.135986      0.205679      0.444298
O      11.53812      5.79269      7.08111        -0.777086     -0.565340      0.170384
O      11.52070      5.63363     11.61760        -0.634852      0.065179      0.186114
O      11.52225      9.47571      2.72009         0.113608      0.198239     -0.022021
O      11.33091      9.55742     15.94179         1.281973      0.027608     -0.278724
O      11.41758      9.70369      7.12592         1.051858     -0.145219      0.232564
O      11.42381      9.55316     11.44357         0.065026     -0.075281      0.497499
O       1.96658      3.76919      2.89552        -0.085536      0.365939     -0.418311
O       1.93028      3.76227     15.76758        -0.307059     -0.236090      0.429893
O       1.87839      0.00212      2.76044        -0.122272     -0.263389      0.008490
O       1.93176     15.29707     15.90388         0.382619      1.299921     -0.043957
O      13.48667      3.82662      2.83569        -0.609119     -0.059728     -0.163547
O      13.36648      3.73814     15.89345         0.522825      0.884813      0.168843
O      13.46916     15.30894      2.76369         0.063438      0.349840      0.215563
O      13.37742      0.00057     15.86936        -0.126289     -0.488780     -0.083091
O       1.82652      3.92431      7.07756         0.023358     -0.707355      0.371544
O       1.84023     15.35555      7.05261         0.028780      0.020273      0.790578
O      13.45366      3.80304      6.99815        -0.589317      0.599250      0.179647
O      13.38548      0.00922      7.16806         0.219967     -0.079546      0.260530
O       1.89060      3.82154     11.47271         0.027113      0.019108     -0.215237
O       1.86300     15.32352     11.37959         0.300864     -0.508983      0.071245
O      13.39687      3.76494     11.61086         0.332442     -0.699545      0.369423
O      13.37110     15.34885     11.51115        -0.130169     -0.393908     -0.037356
O       1.92608      7.64011      2.60935        -0.184130     -0.354968      1.044535
O       1.92706      7.57944     15.79003        -0.452510      0.562669      0.743047
O      13.53174      7.66519      2.82955        -0.058487     -0.129399     -0.230178
O      13.30827      7.61567     15.85137         0.021606      0.135633     -0.247698
O       1.68649      7.67611      6.98492         0.283716      0.061807      0.536713
O      13.31310      7.74800      7.00241         0.251560     -0.116879      0.512164
O       1.76863      7.67180     11.50989         0.307089     -0.116057     -0.175024
O      13.38509      7.56285     11.53496         0.016343      0.630313      0.344612
O       1.98385     11.49417      2.65728        -0.420526      0.407120      0.016980
O       1.72264     11.49139     15.70517         0.089445     -0.052702      0.934899
O      13.43346     11.45490      2.72466        -0.138052      0.153086      0.091726
O      13.28172     11.52106     15.75192         0.570196     -0.506284      0.297117
O       1.90773     11.46761      7.13461        -0.054563      0.091447      0.620441
O      13.25641     11.59546      7.16304         0.382598     -1.069434      0.171109
O       1.88302     11.43880     11.48596         0.073766      0.584472      0.294649
O      13.34322     11.47824     11.53425        -0.230200     -0.006688      0.123145
O       5.72252      3.75601      2.67128        -0.061913      0.290070      0.375447
O       5.74547      3.72359     15.75916         0.062319      1.268583      0.442021
O       5.69694     15.24396      2.74041         0.637367      0.464074      0.713258
O       5.78663     15.29055     15.66242        -0.783861     -0.481071      0.322778
O       5.67933      3.92422      7.14896         0.204548     -0.812226     -0.403849
O       5.67948      0.03468      7.15738        -0.245209     -0.049785     -0.197659
O       5.72998      3.80715     11.55225        -0.267147     -0.113146     -0.506583
O       5.66403     15.30529     11.44193         0.289355     -0.019030     -0.163411
O       5.83113      7.61404      2.60770         0.080321     -0.221444      0.651099
O       5.66890      7.64465     15.81324        -0.271557     -0.354925      0.308813
O       5.78768      7.67678      7.17768        -0.455625      0.604582      0.104611
O       5.66054      7.63094     11.60933         0.442323     -0.463827     -0.575664
O       5.60035     11.45374      2.90797         0.692973     -0.306181     -0.485433
O       5.68540     11.42708     15.75479         0.422968     -0.005372     -0.163371
O       5.51364     11.49260      6.88665         0.554284     -0.148722      0.195463
O       5.75555     11.47307     11.42920         0.062158      0.124422      0.243036
O       9.70446      3.81634      2.62452        -0.178149      0.302497      0.508829
O       9.52844      3.78346     15.98121         0.402433     -0.073000     -0.627883
O       9.54652     15.33873      2.93471         0.345669     -0.235142     -0.153616
O       9.50884     15.31136     15.78943        -0.065707     -0.261719     -0.149081
O       9.52636      3.83949      7.21828         0.245341      0.052245     -0.447227
O       9.47546     15.32824      7.03688        -0.043704      0.173757      0.043229
O       9.52581      3.82913     11.51456        -0.043509     -0.568646      0.666176
O       9.60338     15.34470     11.60215        -0.365586      0.201095     -0.341385
O       9.51336      7.62843      2.78696        -0.035847     -0.018953      0.000505
O       9.53813      7.62538     15.65892         0.200648      0.057703      1.090923
O       9.65473      7.69267      7.01677        -0.510443     -0.485168      0.134392
O       9.61915      7.59837     11.48091        -0.386623      0.041840     -0.099948
O       9.65031     11.43716      2.69741         0.192826     -0.242224      0.216036
O       9.41821     11.49032     15.82371         0.462065      0.316910     -0.065099
O       9.51369     11.54962      7.32530         0.357994     -0.209955     -0.621230
O       9.48683     11.42306     11.34931         0.241757      0.572672      0.440213
