  # total energy = -7862.92184281 
CRSYTAL
PRIMVEC
    15.010000000000000    0.0000000000000000    0.0000000000000000
     0.0000000000000000   15.010000000000000    0.0000000000000000
     0.0000000000000000    0.0000000000000000    16.400000000000000
PRESSURE
18.3649 18.8425 7.54028 0.208614 0.189074 -0.069038
PRIMCOORD
320 1
Pb       4.02970      3.67180      4.38365        -1.222520      0.570196     -0.669190
Pb       3.83994      3.79372      0.15070        -0.367429     -0.238087     -0.338433
Pb       3.68250      0.16230      4.16229        -0.303008     -0.439674     -0.531195
Pb       3.80229      0.02626     16.35345        -0.519064     -0.265360      0.046990
Pb      14.93109      3.62683      4.07677         0.385028      0.290781     -0.117197
Pb       0.03225      3.66052     16.35760         0.053714      0.548956     -0.179013
Pb      14.97008      0.06328      4.23671         0.600031     -0.280928     -0.567810
Pb      14.88600      0.00971      0.06184         0.079614     -0.531770     -0.719623
Pb       3.82581      3.62626      8.34034        -0.428938      0.619864     -0.655072
Pb       3.86505     14.88217      8.31796        -1.083080     -0.294054     -0.286541
Pb       0.07644      3.76719      8.33069         0.049645     -0.062976     -0.928644
Pb      14.96074     14.87944      8.17484         0.277562      0.052871     -0.037338
Pb       3.83479      3.73916     12.21494        -0.754600     -0.321097      0.296349
Pb       3.74069      0.01744     12.50682         0.061646     -0.056829     -0.597068
Pb       0.04795      3.67382     12.34173        -0.000379      0.210700     -0.166171
Pb       0.03714      0.01965     12.29879        -0.542752      0.037637      0.052810
Pb       3.50688      7.57334      4.09126         1.023593     -0.286632      0.183699
Pb       3.77744      7.41147      0.27656        -0.616149     -0.409088     -0.676372
Pb      14.91137      7.49222      4.12850        -0.022217     -0.327155     -0.417757
Pb      14.95034      7.54132      0.10425         0.227868     -0.218403     -0.887895
Pb       3.68995      7.57634      8.03835         0.162396     -0.453008     -0.019633
Pb       0.00674      7.53060      8.23368        -0.435288     -0.119946     -0.144094
Pb       3.77642      7.59605     12.30111        -0.663297     -0.392771     -0.045538
Pb       0.07054      7.30732     12.33253        -0.076890      0.634320     -0.071626
Pb       3.54171     11.23613      4.22785         0.585914      0.048459     -0.639532
Pb       3.72850     10.98599     16.31777        -0.509755      1.391854     -0.118580
Pb      14.96763     11.21570      4.12179        -0.055813      0.414403     -0.451443
Pb      14.92224     11.39175      0.08275         0.029104     -0.325822     -0.531352
Pb       3.66958     11.05945      8.25882         0.233163      1.116224      0.226692
Pb      14.99242     11.13146      8.17043        -0.216252      0.529314      0.727179
Pb       3.76171     11.30671     12.37186        -0.224268     -0.016173     -0.090372
Pb       0.02291     11.30229     12.33492        -0.459142     -0.696352     -0.339480
Pb       7.50890      3.69774      4.18421         0.512946     -0.176432     -0.240034
Pb       7.55333      3.86579     16.37008        -0.284415     -0.556628      0.153825
Pb       7.45534     14.86509      4.28314         0.940315      0.602816     -1.254129
Pb       7.30737     15.00487     16.39327         0.447768      0.047948      0.105758
Pb       7.52196      3.64535      8.24622         0.237352      0.160007      0.055953
Pb       7.51408     15.00165      8.29965         0.135969     -0.309276     -0.000138
Pb       7.45258      3.74394     12.25346         0.389464     -1.000338     -0.022830
Pb       7.60890     14.81502     12.44903        -0.403210      0.425113     -0.554945
Pb       7.25202      7.53170      4.01805         0.209209     -0.047322     -0.173847
Pb       7.48762      7.46763      0.07845         0.084215     -0.051355     -0.242858
Pb       7.49899      7.49152      8.40219        -0.795029      0.229163     -0.465809
Pb       7.59164      7.40968     12.53529        -0.016504      0.617146     -0.453653
Pb       7.45614     11.36474      4.11168        -0.128305     -0.069852     -0.636186
Pb       7.53649     11.27574      0.11485        -0.511093      0.193074     -0.295521
Pb       7.44288     11.19577      8.26933        -0.915696      0.231598     -0.001172
Pb       7.55253     11.15810     12.36929        -0.365627      0.346883     -0.219517
Pb      11.14031      3.76211      4.16401         0.157549     -0.353499     -0.335679
Pb      11.32739      3.84012     16.38644        -0.328967     -0.453429     -0.221241
Pb      11.46023     14.99087      4.27512        -1.671543      0.149679     -0.934073
Pb      11.02670     14.90895      0.15299         1.021390      0.035666     -0.824063
Pb      11.46641      3.78582      8.12279        -0.770322     -0.340202     -0.015063
Pb      11.33808     14.86379      8.26285        -0.460558      0.300493     -0.237921
Pb      11.35048      3.72103     12.19311        -0.268525     -0.372604      0.314403
Pb      11.30205      0.15306     12.29801         0.063933     -0.488588      0.072352
Pb      11.20209      7.45740      4.22534         0.326519     -0.099774     -0.957400
Pb      11.08974      7.45738      0.16641         0.466522      0.004884     -0.965866
Pb      11.04165      7.44100      8.19227         1.344965      0.018231      0.076207
Pb      11.31870      7.29646     12.30041        -0.091585      0.823243      0.038555
Pb      11.31388     11.29915      4.18842        -0.655515     -0.119419     -0.836342
Pb      11.20489     11.12151      0.09277         0.393868      0.463622     -0.597422
Pb      11.03322     11.16770      8.32982         1.035153      0.193739     -0.704537
Pb      11.17536     11.33094     12.25555         0.297466     -0.659309      0.199833
Ti       1.81266      1.86246      1.96087         1.034816      0.963108      0.832129
Ti       1.80342      1.84948     14.26714         0.446265      0.800373      1.156115
Ti       1.80767     13.20598      2.12293         0.293658     -0.391661     -0.493190
Ti       1.78580     13.10890     14.41202         0.550598     -0.300846      0.133242
Ti      13.11538      1.84387      2.00042        -0.676237      0.831551      0.942996
Ti      13.07619      1.86376     14.44955         0.437422     -0.601648      0.052373
Ti      13.06560     13.13408      2.12089        -0.421246     -0.196188     -0.684656
Ti      13.08969     13.09543     14.21147        -0.487070      1.279392      1.138372
Ti       1.87478      1.86619      6.18252        -0.898028      0.388935     -0.066027
Ti       1.85141     13.17758      6.20400         0.401956     -0.990766      0.094631
Ti      13.12775      1.78216      6.19720         0.446171      1.605394      0.610196
Ti      13.06432     13.05214      6.19403         0.586618      0.052877      0.492814
Ti       1.87769      1.81090     10.21718         0.288764      0.734198      0.054080
Ti       1.80872     13.15924     10.31328         0.491861     -0.739240     -0.919872
Ti      13.22212      1.84340     10.14523        -1.165635     -0.182103      0.555144
Ti      13.11677     13.07861     10.33403         0.872578     -0.131063     -0.754776
Ti       1.76497      5.59039      2.11472         0.799223     -0.278781     -0.229327
Ti       1.87050      5.56636     14.44524         0.883916      1.043339     -0.354724
Ti      13.08925      5.60478      1.99043         0.146751     -0.039262      0.970708
Ti      13.16102      5.63495     14.34837        -0.217955     -0.524452      0.127088
Ti       1.82501      5.57623      6.07971         0.727830     -0.015646      0.262947
Ti      13.14620      5.63402      6.11062         0.012521     -0.660568      0.450393
Ti       1.85722      5.61574     10.23535         1.042273     -0.042434      0.292725
Ti      13.15173      5.60490     10.20355        -0.405801      0.831923     -0.061936
Ti       1.76145      9.39113      2.00185         1.053336      0.571135      0.436658
Ti       1.72633      9.31556     14.29443         0.395498      0.938653      0.390075
Ti      13.08887      9.33780      1.99054        -0.563893      0.671916      1.139425
Ti      13.08636      9.35994     14.32599         0.527700      0.475072     -0.044618
Ti       1.71980      9.40013      6.17674         1.472951     -0.553232     -0.043055
Ti      13.01348      9.39508      6.13517        -0.203020     -0.532202      1.221667
Ti       1.79806      9.38380     10.39011        -0.546180      0.089026     -0.356680
Ti      13.07506      9.32947     10.27989         1.390954      1.450935     -0.010932
Ti       5.63865      1.87247      2.18699         0.647592     -0.116297     -1.058435
Ti       5.62961      1.92992     14.46186        -0.128150      0.205191     -0.899254
Ti       5.51652     13.20399      2.05919         0.353315     -1.309535     -0.399144
Ti       5.54702     13.09569     14.31421         0.672707     -0.168011      0.153941
Ti       5.68373      1.78924      6.26046        -0.987563      1.512828      0.200789
Ti       5.53389     13.20873      6.10091         0.269532     -1.749853      0.708266
Ti       5.60203      1.80341     10.26984         1.516899     -0.216247      0.494017
Ti       5.54127     13.14108     10.24918         0.667936     -1.241518     -0.139546
Ti       5.56604      5.58300      2.14227        -0.412389      0.465386      0.975427
Ti       5.55156      5.62232     14.18786        -0.292891     -0.608270      1.472413
Ti       5.66171      5.67201      6.17485        -1.513992     -0.290921      0.418563
Ti       5.61198      5.62216     10.27947        -1.041168     -0.143790     -0.944024
Ti       5.59657      9.47634      1.97444        -0.284676     -0.464589      1.124341
Ti       5.59593      9.28818     14.42539        -0.150674      1.334587     -0.610139
Ti       5.56393      9.44359      6.09066         0.096855     -0.049766     -0.113978
Ti       5.56873      9.38770     10.38648         0.377997      0.319885     -0.863968
Ti       9.38600      1.86302      1.96449        -0.396443     -0.188869      0.757069
Ti       9.39005      1.83963     14.38062        -0.376616      0.345404     -0.223032
Ti       9.35595     13.16562      2.03594        -0.844065     -0.269489      1.857653
Ti       9.40000     13.08570     14.42682        -0.208970      0.274390     -0.251688
Ti       9.36025      1.83158      6.18995         1.068068     -0.002308     -0.568300
Ti       9.31878     13.07792      6.25781        -0.138226      1.272090     -0.165084
Ti       9.44287      1.82754     10.24809        -1.093006      1.554493     -0.444129
Ti       9.36750     13.18516     10.24003        -0.649864     -0.517058      0.562985
Ti       9.34229      5.60853      2.10247        -0.188467     -0.241924      0.452351
Ti       9.40728      5.58770     14.36343         0.311012      0.703921      0.760850
Ti       9.30911      5.64496      6.21556        -0.082166     -1.693456     -0.436852
Ti       9.32098      5.58032     10.30851         0.195359     -1.123989     -0.673220
Ti       9.36175      9.37678      2.09710         0.164751      0.778885      0.289969
Ti       9.34138      9.37966     14.39386         0.970879     -0.528317     -0.186300
Ti       9.26443      9.34608      6.04324         0.130385      0.983235      0.884813
Ti       9.37689      9.35077     10.26752        -0.121237      0.626057      1.369554
O       1.78897      1.81230      0.15181         0.143045     -0.008894      0.074928
O       1.79148      1.91397     12.45565        -0.134136      0.197445     -0.636361
O       1.81766     13.22525      0.30704        -0.309178      0.203725     -1.202011
O       1.98881     13.14121     12.58027        -0.482622      0.014311     -0.618409
O      13.13690      2.04234      0.21687        -0.026706     -0.949283     -0.548019
O      13.16655      1.92450     12.64567        -0.150159      0.035356     -1.826628
O      12.99048     13.18587      0.29688         0.229236     -0.226249     -0.206167
O      13.12455     13.29845     12.41397        -0.160736     -0.611747      0.041248
O       1.77553      1.88138      4.33284         0.159997     -0.063282      0.257720
O       2.04914     13.08856      4.38177        -0.663860      0.247606     -0.827991
O      13.31936      1.77256      4.37758        -1.147946      0.277530     -0.803418
O      13.06137     13.13246      4.35451         0.152579      0.163566     -0.062009
O       1.93520      1.90853      8.40013        -0.040878     -0.133634     -0.675379
O       1.69633     13.12489      8.47602         0.342258      0.267604     -0.559860
O      13.27963      1.84272      8.35196        -0.913140     -0.035717     -0.261627
O      13.15580     13.22249      8.41701         0.121457     -0.466062      0.083560
O       1.88716      5.70644      0.25673        -0.150591      0.164129     -0.565195
O       1.88049      5.57070     12.59255        -0.114377      0.148217     -0.898259
O      13.05604      5.65455      0.19944         0.270057      0.069815     -1.013637
O      13.05115      5.63801     12.45277         0.392651     -0.168736      0.233232
O       1.82127      5.64883      4.27363        -0.025761     -0.025748     -0.469945
O      13.08877      5.63736      4.29355        -0.203575      0.163501      0.067780
O       1.84067      5.66930      8.41958        -0.000679      0.174968     -0.491030
O      13.13620      5.64754      8.37872         0.037549      0.317890      0.061778
O       1.69273      9.34124      0.22207         0.742481     -0.078252     -0.792986
O       1.69840      9.37661     12.45060         0.475092      0.081029      0.139388
O      13.09295      9.40475      0.20682        -0.232455     -0.047262     -0.576883
O      13.23775      9.58076     12.55887        -0.391400     -1.202864     -0.429321
O       1.83230      9.47063      4.31279        -0.040544     -0.129770     -0.337056
O      13.09933      9.50925      4.35357         0.067496     -0.596635     -0.907519
O       1.79134      9.42963      8.40962         0.235076     -0.784337     -0.028141
O      13.21867      9.45423      8.45148        -0.628701     -0.292802     -0.712188
O       5.64909      1.96350      0.29198        -0.372446     -0.341832     -0.848305
O       5.72395      2.07509     12.60991        -0.320143     -0.772949     -0.468584
O       5.65414     13.20842      0.19668        -0.261893      0.102178     -0.336703
O       5.59363     13.03915     12.43166        -0.173061      0.394762      0.495360
O       5.64218      1.80054      4.40990         0.136312      0.063403     -0.964704
O       5.48031     13.30874      4.26713         0.147000     -0.651963      0.171629
O       5.54507      1.88848      8.37615        -0.091828     -0.255313      0.012306
O       5.64100     13.10443      8.38225         0.158210      0.450380      0.327310
O       5.53557      5.55829      0.33939         0.120054      0.501917     -1.388404
O       5.50946      5.55321     12.38232         0.546704      0.359260      0.426092
O       5.63465      5.64768      4.33420         0.113841     -0.229055     -0.882159
O       5.78454      5.63108      8.42802        -0.758359      0.094986     -0.562050
O       5.60835      9.45268      0.10934         0.216785     -0.823051     -0.124932
O       5.72447      9.43971     12.52311        -0.197071     -0.306286     -0.548471
O       5.57608      9.59111      4.28399         0.209050     -0.746082     -0.399646
O       5.57882      9.42452      8.48037        -0.235050     -0.456187     -0.402823
O       9.39631      1.75297      0.12414         0.030730      0.392271      0.325382
O       9.43545      1.89787     12.49223        -0.519304     -0.105424      0.778924
O       9.29200     13.10991      0.22642         0.547786      0.464329     -1.078463
O       9.48504     13.21324     12.60247        -0.687991     -0.232783     -1.433602
O       9.24629      1.87163      4.32878         0.425960      0.208971      0.562146
O       9.22395     13.13229      4.47318         0.423484     -0.214459     -1.306173
O       9.34166      1.90192      8.41134         0.267365     -0.136554     -0.595240
O       9.31533     13.14770      8.41051         0.233973      0.079183     -0.016419
O       9.42067      5.62340      0.29423        -0.164223      0.557350     -1.421912
O       9.43885      5.68540     12.56389        -0.243601      0.041395     -1.311437
O       9.33365      5.58650      4.37413         0.211623      0.245067     -0.801774
O       9.40274      5.48412      8.43584        -0.539232      0.677921      0.056955
O       9.35806      9.44382      0.23741         0.190511     -0.370079     -0.668464
O       9.41098      9.45509     12.56145        -0.631748     -0.668260     -1.026670
O       9.38877      9.54155      4.27167        -0.599106     -0.644522      0.091261
O       9.47458      9.38966      8.46105        -0.316856     -0.225000     -0.787225
O       3.80581      2.02592      2.31674        -1.594741     -0.218484      0.045745
O       3.64478      1.77026     14.46345         1.456622     -0.320017      0.540357
O       3.70387     13.09740      2.16838        -0.367169     -0.581440      0.542042
O       3.70366     13.29903     14.56381        -0.353661      0.418186      0.443367
O      14.96696      1.77639      2.31851         0.187191     -0.365073     -0.270918
O      14.98646      2.04657     14.59323        -0.080964      0.322748      0.294879
O      14.92766     13.24422      2.30054         0.513172      0.456723      0.440255
O      14.93859     12.96581     14.62675         0.662198      0.293303      0.135278
O       3.68307      2.03000      6.30588         1.442952      0.684661      0.284834
O       3.75079     12.95617      6.53290        -0.736600     -0.310103      0.003970
O      14.94224      1.58710      6.34086         1.631552     -0.195810      0.486990
O      14.99455     13.44468      6.22697        -0.506106     -0.565950      0.463896
O       3.74761      1.94755     10.52701         0.147985      0.601635      0.014158
O       3.70225     13.00848     10.36436         0.174524     -0.088366      0.400123
O       0.00826      1.76090     10.37119         0.228710     -0.218347      0.768553
O      14.99598     13.29808     10.59416         0.120806      0.213700      0.124826
O       3.66360      5.51801      2.22447         0.753121      0.013151      0.434887
O       3.76890      5.89695     14.56160         0.144131     -0.046259      0.353939
O      14.94442      5.82108      2.29917         0.354967      0.434266      0.156167
O       0.04055      5.51187     14.50859        -1.401057     -0.247106      0.412482
O       3.71900      5.35896      6.30675         0.166450     -0.005692      0.664787
O      14.99176      5.92161      6.30988        -0.146447      0.246261      0.393172
O       3.72573      5.44194     10.48606         0.065230     -0.159350     -0.271359
O      14.99883      5.76307     10.44129        -0.005415      0.125339      0.216940
O       3.71238      9.56199      2.16096         0.049822      0.037196      0.140299
O       3.70691      9.28427     14.47548         0.375297     -0.246646      0.365636
O      14.95508      9.15338      2.25149        -0.519595      0.300905      0.549526
O      14.96751      9.63427     14.68387        -0.498000     -0.134732      0.023382
O       3.71797      9.63945      6.39284        -0.526698     -0.316301     -0.002939
O      14.93186      9.30031      6.30847        -0.099953     -0.893950      0.466710
O       3.68309      9.59313     10.57137         0.975246     -0.485150      0.133266
O      14.99569      9.33201     10.50931        -0.123251     -0.484300     -0.110237
O       7.56695      1.79228      2.19664        -1.102533     -0.010493      0.407796
O       7.48338      2.16931     14.64706         0.769049     -0.590232     -0.133192
O       7.43179     13.17335      2.32177         1.304357      0.284744      0.387061
O       7.44363     13.08041     14.51918         0.452408      0.031563     -0.045379
O       7.47292      1.59891      6.39937         0.500698     -0.244082      0.414230
O       7.42734     13.42929      6.30551        -0.215887      0.055706      0.531190
O       7.47456      1.74012     10.31552         0.080816     -0.114354      0.563028
O       7.52127     13.27434     10.41192         0.156433      0.042557      0.579921
O       7.44603      5.78149      2.15863         0.537281      0.021698      0.657223
O       7.48872      5.59602     14.49157        -0.286914     -0.492980      0.192883
O       7.45605      5.90589      6.32119         1.231003      0.330884      0.562775
O       7.41309      5.73478     10.51525         2.203909      0.072686      0.668211
O       7.50834      9.33433      2.20288        -0.544659     -0.282745      0.403711
O       7.49104      9.48668     14.51626        -0.360533      0.224127      0.407372
O       7.41645      9.06175      6.36102         0.843657      0.415143      0.279030
O       7.52403      9.31229     10.26994        -0.392876     -0.033948      0.963989
O      11.27190      2.09519      2.38725         0.096672     -0.281804     -0.099572
O      11.22284      1.88605     14.61547        -0.088384     -0.662446      0.118369
O      11.17765     13.16097      2.51291         0.190667     -0.547746     -0.296852
O      11.25110     13.28129     14.53879        -0.231479      0.116645      0.636506
O      11.28075      2.17436      6.30292        -0.448341     -0.226298      0.116510
O      11.19307     12.91580      6.40392         0.772821     -0.061120      0.274416
O      11.26707      2.06404     10.44851         1.410203     -0.210955      0.181327
O      11.29759     13.05458     10.42208        -1.369113      0.246310      0.111848
O      11.23419      5.55284      2.29429        -0.542235     -0.061546      0.458840
O      11.30763      5.86321     14.60805        -0.783892     -0.141059      0.016525
O      11.22582      5.44560      6.43670        -0.002005      0.010558     -0.238990
O      11.18464      5.52440     10.52575         0.932816      0.134305     -0.124932
O      11.24623      9.51595      2.38863         0.092628     -0.378692     -0.344796
O      11.23067      9.27782     14.53004         0.460709     -0.228242      0.701230
O      11.15465      9.61019      6.35232         0.342008     -0.076217      0.196203
O      11.29013      9.56236     10.51686        -1.404118     -0.271463      0.099822
O       1.64628      3.72013      2.20223         0.066354      0.616544      0.111824
O       2.01419      3.77741     14.60737         0.026313     -0.856714      0.430140
O       2.01961      0.09358      2.33018        -0.252765     -1.382640      0.343056
O       1.60248      0.02708     14.43612         0.180351     -1.000646      0.550485
O      13.29046      3.80083      2.22307        -0.053243     -1.128310      0.511552
O      13.05036      3.74126     14.58632        -0.279776      1.560146      0.306449
O      12.96108     14.99962      2.27644         0.035587      1.468019      0.140295
O      13.26364      0.00204     14.56526         0.115558      0.019195      0.475281
O       1.59655      3.75423      6.33011        -0.283841     -0.423135      0.355691
O       2.05110     14.96584      6.35874         0.338896      1.234657      0.353904
O      13.39236      3.77839      6.42811        -0.372345     -0.359202     -0.149099
O      12.86651     14.94376      6.44932        -0.233689      0.679436     -0.211585
O       1.64876      3.71351     10.38695         0.446819      0.754269      0.478188
O       2.10507      0.04136     10.55818        -0.649475     -1.277448      0.215286
O      13.28700      3.78173     10.33074        -0.165072     -0.777309      0.696951
O      13.07113      0.03162     10.52055        -0.474898      0.408718     -0.206817
O       2.06148      7.53033      2.30973        -0.702668     -0.009833     -0.256984
O       1.67555      7.54841     14.50570        -0.187481     -1.047786      0.381903
O      12.98204      7.49056      2.26032        -0.349372      0.764876      0.401422
O      13.34130      7.46358     14.54343         0.089648      1.365258     -0.071609
O       2.06691      7.51851      6.21385         0.033995      0.212794      0.805716
O      12.88145      7.52967      6.32442        -0.144576      0.007646      0.153959
O       2.04600      7.48153     10.59472        -0.236982      0.164516     -0.299417
O      13.10708      7.54167     10.42008        -0.629954     -1.645054      0.549420
O       1.58977     11.27602      2.19318         0.418898      0.016454      0.680428
O       2.01139     11.21287     14.56211         0.005644      1.248820      0.266051
O      13.13318     11.28824      2.26937         0.398605     -1.209675      0.270358
O      12.99303     11.32248     14.51729        -0.441911     -1.013698      0.556934
O       1.62829     11.22944      6.34947         0.130762      1.199634      0.184873
O      13.31487     11.25653      6.34407         0.094522      0.102661      0.356807
O       1.70816     11.26905     10.44307         0.022144      0.284790      0.531172
O      13.24516     11.24263     10.58835         0.224239      1.181108     -0.262076
O       5.68211      3.73102      2.34145         0.482322      0.774753      0.603649
O       5.44674      3.79097     14.61330        -0.267623      1.044287      0.316830
O       5.58842      0.00118      2.22769        -0.281230      0.762083      0.226601
O       5.64744      0.03869     14.51460         0.421457      0.154521      0.350989
O       5.91507      3.75340      6.24738        -0.503812     -0.658549      0.463413
O       5.31876      0.02113      6.47962         0.102955     -0.433501     -0.133172
O       5.72260      3.66200     10.43883        -0.019193      1.180347      0.202133
O       5.53504     14.95927     10.54852        -0.400107      0.918801      0.127872
O       5.53868      7.54793      2.35844        -0.375606      0.107567     -0.294368
O       5.78833      7.48265     14.51395         0.160256     -0.251897      0.168550
O       5.28152      7.49975      6.17290         0.072078      0.866205      0.836605
O       5.48861      7.47709     10.43881        -0.249661      0.875670      0.403811
O       5.83338     11.25252      2.09592        -0.457592      0.951459      0.578303
O       5.47428     11.30280     14.57619        -0.108097     -1.118740      0.076365
O       5.80999     11.30801      6.28828         0.443291      0.028379      0.355956
O       5.72815     11.27537     10.39877         0.343775     -0.672587      0.662801
O       9.22003      3.73932      2.11595         0.161160      0.651818      0.809232
O       9.58006      3.82051     14.65402        -0.487896     -0.957239      0.082629
O       9.48387      0.00470      2.31479         0.098125      0.135646     -0.294760
O       9.26798     14.97379     14.51107        -0.364011      1.546589      0.500167
O       9.09470      3.70814      6.28868        -0.228466      1.014370      0.491509
O       9.64148     15.00654      6.42930        -0.089277      0.068757      0.226958
O       9.21260      3.67209     10.52070        -0.257754      2.148273      0.341864
O       9.48714      0.05414     10.50702         0.328334     -1.941435      0.387065
O       9.41447      7.53363      2.21066         0.430756     -0.634002      0.545908
O       9.23481      7.49390     14.65366        -0.154063      0.214249      0.231668
O       9.59487      7.49498      6.38741        -0.182062      0.627728     -0.127449
O       9.45739      7.49902     10.40946         0.056908     -0.438572      0.347401
O       9.35808     11.28341      2.16482        -0.384183      0.182383      0.485974
O       9.46481     11.23606     14.53793         0.079948      0.515269      0.638563
O       9.18096     11.25765      6.50305        -0.723602     -1.408448     -0.057714
O       9.33984     11.30688     10.55029        -0.155847     -0.345144     -0.193139
