  # total energy = -7879.47829332 
CRSYTAL
PRIMVEC
    15.3600000000000000    0.0000000000000000    0.0000000000000000
     0.0000000000000000   15.3600000000000000    0.0000000000000000
     0.0000000000000000    0.0000000000000000    17.440000000000000
PRESSURE
3.23623 3.08138 3.43509 0.162194 0.09469 -0.007541
PRIMCOORD
320 1
Pb       3.80564      3.86856      4.21887        -0.105226     -0.094561      0.471451
Pb       3.76943      3.90324     17.33234        -0.051093     -0.709198      0.407854
Pb       3.85703      0.01058      4.21630         0.223906     -0.258521      0.610410
Pb       3.97201      0.06365      0.02042        -0.800487     -0.159897     -0.077308
Pb      15.21742      3.91907      4.27898         0.990352     -0.493938      0.466784
Pb      15.20597      3.75751     17.38551         0.421772      0.182582     -0.215550
Pb      15.23292     15.30986      4.31517         0.171663     -0.468236      0.494581
Pb       0.07822     15.35181     17.43574        -0.011074      0.188823     -0.268324
Pb       3.93452      3.88379      8.57786        -0.120727     -0.748005      1.182939
Pb       3.77109     15.25702      8.77613         0.616647      0.326924     -0.710078
Pb       0.14480      3.67490      8.65352        -0.169324      0.350631      0.443137
Pb       0.17138     15.31290      8.57985        -0.698433     -0.193156      0.181805
Pb       3.84474      3.94506     13.07910        -0.663916     -0.426359      0.087122
Pb       3.99012     15.30052     13.24465        -0.678154      0.458411     -0.054649
Pb      15.23020      3.86135     12.96579         0.752939      0.256743      0.088437
Pb      15.33771      0.04906     12.99111        -0.177667     -0.589219      0.198567
Pb       3.80256      7.64545      4.29139        -0.302320      0.149941     -0.198837
Pb       3.83634      7.78229      0.00829         0.031539     -0.540453     -0.283448
Pb      15.20167      7.44780      4.29958         0.760472      0.965297      0.796095
Pb       0.16421      7.68481     17.40407        -0.530251     -0.558466     -0.204716
Pb       3.83328      7.53908      8.67618        -0.184172      1.216039      0.741593
Pb      15.31477      7.68554      8.66995         0.456024     -0.213807      0.313892
Pb       3.80128      7.82247     13.08569         0.175786     -0.435171     -0.099286
Pb      15.35397      7.73671     12.90593        -0.036418     -0.181624      0.067108
Pb       3.83311     11.41520      4.33162        -0.455441      0.251833      0.037326
Pb       3.73606     11.41410     17.42468         0.749231      0.428163      0.537360
Pb      15.35902     11.42548      4.26543        -0.276114      0.393401      0.868789
Pb       0.08418     11.38843      0.05997        -0.561295      0.523672      0.341057
Pb       3.70761     11.50643      8.68019         0.570634     -0.475417     -0.098138
Pb       0.09707     11.57463      8.59507        -0.809632     -0.119784      0.392419
Pb       3.73967     11.58142     13.00203         0.290742     -0.193015      0.616118
Pb      15.14228     11.42037     13.04178         0.339288      0.506153     -0.322267
Pb       7.59033      3.94179      4.29102        -0.059147     -0.595123      0.383764
Pb       7.71397      3.84565     17.29217        -0.845479      0.082723      0.997084
Pb       7.58617      0.01157      4.17985        -0.222468      0.057780      0.559403
Pb       7.80197     15.27736     17.43479         0.024743     -0.093646      0.215745
Pb       7.70831      3.73706      8.70349        -0.139773     -0.173602     -0.043389
Pb       7.68166      0.01135      8.66064        -0.370711      0.040767      0.215855
Pb       7.48727      3.67722     13.04295         0.894219     -0.316287      0.762687
Pb       7.70205     15.06086     13.14055        -0.388280      1.831955      0.705581
Pb       7.57587      7.76390      4.34019         0.805909     -0.279615      0.175360
Pb       7.79591      7.50128     17.37690        -0.627348      0.752266     -0.005802
Pb       7.59829      7.64109      8.68654         0.129647     -0.250415      0.297145
Pb       7.69465      7.61319     13.02016        -0.109234      0.336986      0.381600
Pb       7.66749     11.52158      4.25064        -0.000950     -0.183240      0.739277
Pb       7.70629     11.45561     17.36340        -0.027813      0.355201      0.493440
Pb       7.74942     11.40179      8.77730        -0.617284      0.461336     -0.263337
Pb       7.57995     11.50357     13.09155         0.176391     -0.642017     -0.073920
Pb      11.55594      3.89775      4.38254        -0.332275      0.018766      0.034552
Pb      11.26908      3.78845     17.28038         1.969649      0.275748      1.492958
Pb      11.44669      0.14923      4.27602         0.395339     -0.717955      0.020221
Pb      11.71127      0.03425     17.29693        -0.814746      0.003885      1.398367
Pb      11.66708      3.72369      8.70481        -0.729279      0.392201      0.350703
Pb      11.49961     15.27491      8.61796        -0.079721     -0.036905      0.778806
Pb      11.40961      3.91045     12.91851         0.656725     -0.346732      0.142043
Pb      11.42530     15.29165     13.06711         0.781522      0.163556     -0.316996
Pb      11.52764      7.70346      4.35499        -1.077544     -0.374751      0.530919
Pb      11.45153      7.63902     17.34012         0.373727     -0.131377      0.271987
Pb      11.43716      7.58905      8.66521         0.346927     -0.360943      0.561029
Pb      11.62402      7.73158     12.90774        -0.268689     -0.261906      0.495109
Pb      11.39880     11.55711      4.38889         0.129813      0.227658      0.245218
Pb      11.65512     11.57229     17.41576        -0.502170     -0.054307      0.159320
Pb      11.35136     11.51759      8.75226         0.705049      0.596199      0.433616
Pb      11.37709     11.53921     13.01609         0.718165     -0.059326      0.135668
Ti       1.91755      1.83399      2.34734        -0.806782      0.690777     -0.267333
Ti       1.93164      1.90983     15.41303         0.250456     -0.210691      0.952704
Ti       1.89602     13.41105      2.35057        -0.682768      0.031092      0.447399
Ti       1.89272     13.37159     15.57322         0.219857      2.375270     -1.633815
Ti      13.47766      1.98096      2.29637        -1.075836     -1.261800      0.677394
Ti      13.39565      1.94141     15.27968         1.289364      0.869237     -0.180868
Ti      13.37260     13.42225      2.44795        -0.225142      1.233035     -0.744097
Ti      13.45716     13.41145     15.44674         0.096644      0.146949     -0.844797
Ti       2.02672      1.96445      6.70028        -0.028667     -1.086760     -0.422374
Ti       1.91782     13.41737      6.60772        -0.352000     -0.006133     -1.013639
Ti      13.43248      1.82378      6.73128         0.635341     -0.406580      0.862984
Ti      13.35436     13.34758      6.75260         0.936523     -0.319472     -0.664933
Ti       1.91968      1.84633     11.16772         0.602777      1.171158     -0.484470
Ti       1.90947     13.42285     11.07456        -1.122133     -0.001568      0.379007
Ti      13.46770      1.88954     11.04836        -0.975801     -0.452619      1.695578
Ti      13.41458     13.37690     11.01296        -0.277597      0.871284      1.165639
Ti       1.84794      5.70809      2.21427         1.411693      0.619218      0.105994
Ti       1.94710      5.76382     15.37511        -0.819621     -0.432838     -0.565167
Ti      13.30508      5.85867      2.35304         0.443250     -2.123696     -2.427498
Ti      13.45223      5.78225     15.42395         0.258467     -0.437481      0.342879
Ti       1.98002      5.80770      6.77562        -1.657910     -0.184364     -0.576841
Ti      13.45393      5.68784      6.85544        -0.436219      0.859937     -0.370911
Ti       1.98218      5.76721     11.06913        -0.939562     -0.273778      0.760388
Ti      13.43523      5.71721     10.99224         0.269115      0.016945      1.000740
Ti       1.80772      9.50021      2.41099         0.653278      0.516121      0.969892
Ti       1.83262      9.64240     15.33965         0.891804     -1.078100     -0.607689
Ti      13.30091      9.63513      2.37898         0.522648      0.706419     -1.268173
Ti      13.38661      9.61021     15.49634        -0.396312     -0.676527      0.047426
Ti       1.84060      9.57633      6.66183         1.251295     -0.489199     -0.473066
Ti      13.40805      9.55575      6.81253        -0.001116      0.728207      0.140971
Ti       1.89950      9.60164     10.96363        -0.095429      0.409429      0.516503
Ti      13.37425      9.60780     10.86269         0.412295      0.833951      2.404884
Ti       5.72668      1.94599      2.19701         0.485188     -0.405187      1.961278
Ti       5.85555      1.82564     15.54230        -1.720183      0.850800     -1.233269
Ti       5.73099     13.30602      2.38765        -0.178008      0.859827     -0.262607
Ti       5.73430     13.39788     15.54978         0.524668      0.471525     -1.185177
Ti       5.75599      1.85065      6.67349         0.107603     -0.426404      0.028609
Ti       5.72883     13.30936      6.73020        -0.129943      1.213484     -0.878400
Ti       5.66343      1.87910     11.06826         1.300855      0.118575      0.254917
Ti       5.68017     13.50386     11.10586        -0.347276     -0.551826     -0.954464
Ti       5.71300      5.74572      2.25646        -0.452660      0.016018      0.347090
Ti       5.68490      5.72580     15.45261         0.195183      0.437573      0.539129
Ti       5.74072      5.78617      6.67543         0.586755     -0.875714     -0.084167
Ti       5.77258      5.79408     11.08154        -0.789097     -0.534458     -0.058586
Ti       5.70858      9.55307      2.29857        -0.046383      0.440632     -0.006069
Ti       5.71148      9.61575     15.51690         0.359085     -0.759952     -0.700765
Ti       5.72631      9.55683      6.71674        -0.582936      0.471221      0.551933
Ti       5.79319      9.60381     11.08600        -1.063938     -0.377245     -0.209067
Ti       9.59534      1.91075      2.32951         0.363771      0.014049     -0.127461
Ti       9.56841      1.94585     15.36956        -0.047260     -1.037221      0.758729
Ti       9.56718     13.38655      2.36330         0.757103      0.528455      0.701682
Ti       9.65310     13.44995     15.50245        -0.572041     -0.468117      0.750818
Ti       9.59947      1.96223      6.60989        -0.470625     -0.464419      1.771165
Ti       9.51171     13.49967      6.71530         0.106694     -0.849424     -0.158538
Ti       9.55923      1.91408     11.12511        -0.558147     -0.873459     -0.442228
Ti       9.46668     13.49524     11.11396         2.599117     -0.518059     -1.378025
Ti       9.51307      5.68496      2.40839         0.531204      1.927630      0.545681
Ti       9.61071      5.76461     15.31211         0.192047      0.039579      0.692664
Ti       9.52145      5.68941      6.77346         1.431924      0.336567     -1.381733
Ti       9.50209      5.67518     11.05038         1.257526      0.690296     -1.624448
Ti       9.53602      9.55061      2.32228        -0.143255     -0.423572      1.812795
Ti       9.57974      9.59037     15.36030         0.019053      0.837972      0.608553
Ti       9.61631      9.49914      6.86294        -0.309667      0.888813      0.091674
Ti       9.59202      9.54735     11.08324        -0.120864      0.314117      1.598532
O       1.64476      1.98594      0.62611         0.599267     -0.335739     -0.025265
O       2.10821      2.00524     13.72005        -0.501634     -0.525925     -2.128370
O       1.74664     13.42495      0.60660         0.453468     -0.357728     -1.427010
O       1.98016     13.40813     13.78848         0.164406     -0.212523      0.541119
O      13.42413      2.01363      0.57266         0.343198     -0.029906     -0.698513
O      13.60570      1.98133     13.51173        -0.513896     -0.033931      0.838309
O      13.24661     13.45936      0.68380         0.106199     -0.327840     -1.184997
O      13.34093     13.26838     13.71539         0.401600      0.646477     -0.639408
O       2.14617      1.99817      4.99117        -0.270258     -0.232291     -1.598411
O       1.84683     13.44208      4.86074         0.095835      0.008373     -0.120902
O      13.42150      1.81787      5.01480        -0.183600      0.419326     -0.714364
O      13.51690     13.42160      4.99161        -0.679644     -0.193108     -0.869560
O       1.91842      1.86719      9.40701        -0.043868     -0.049228     -0.932805
O       1.75178     13.38715      9.32528         0.927678      0.185974     -1.257459
O      13.50093      1.86949      9.35224         0.012839     -0.066995     -2.729523
O      13.42426     13.52648      9.32704         0.079912     -0.106719     -1.686664
O       1.89567      5.74086      0.46241        -0.240653      0.132309     -0.307958
O       1.89326      5.79802     13.57511         0.371982      0.182236      0.463689
O      13.33695      5.66500      0.58592         0.029339      0.567612      0.926292
O      13.41081      5.76738     13.68779         0.020541     -0.072768     -1.517711
O       1.89492      5.79123      5.03263         0.160654      0.160557     -0.437950
O      13.42595      5.81124      5.08221         0.537871     -0.302712     -1.601381
O       2.00572      5.84800      9.36021         0.093734     -0.196996     -2.403928
O      13.31626      5.69243      9.31290         0.207527      0.293759     -2.258636
O       1.91011      9.60346      0.67305        -0.323266      0.252048     -1.751837
O       1.85129      9.55310     13.55554        -0.098644      0.341376      1.030365
O      13.36332      9.72783      0.58505        -0.232125     -0.217118      0.467828
O      13.43349      9.60571     13.78379         0.207974     -0.074265     -1.424658
O       1.92899      9.58332      4.86773        -0.268782     -0.355412     -0.044918
O      13.45437      9.68367      5.07176        -0.317323     -0.447497     -1.200330
O       1.94535      9.60172      9.22702        -0.141032      0.219613     -0.935374
O      13.39542      9.58288      9.19719         0.167240     -0.234215     -2.172209
O       5.77673      2.00939      0.50642         0.108768     -0.256047     -1.574965
O       5.83665      1.77719     13.74552         0.046750     -0.018592      0.241410
O       5.98607     13.20411      0.67515        -0.821632      0.478975     -0.429096
O       5.67328     13.58314     13.71347         0.237413     -0.470176     -0.027138
O       5.78085      1.77672      4.91273        -0.106641      0.400064     -0.177801
O       5.81896     13.43474      4.94899        -0.224050     -0.320873     -0.339054
O       5.69048      1.95181      9.32563         0.049940      0.016923     -0.450962
O       5.55303     13.47309      9.35233         0.321471     -0.191952      0.161331
O       5.60277      5.71796      0.52329         0.843331      0.174650     -0.330803
O       5.62521      5.85127     13.74072         0.124513     -0.378852     -1.451432
O       5.69359      5.66690      4.93749        -0.037716      0.351333     -0.712541
O       5.71234      5.83662      9.32602         0.341237     -0.247306     -0.544361
O       5.62453      9.72443      0.55451         0.130723     -0.484696     -0.574374
O       5.65502      9.55648     13.76044         0.477592      0.229201     -0.631516
O       5.82770      9.49418      4.97287        -0.284512      0.407824     -0.853461
O       5.73638      9.64882      9.34608         0.293358     -0.486455     -0.156792
O       9.58078      1.95746      0.58329        -0.070394     -0.113844     -0.674880
O       9.47602      1.93419     13.68242        -0.029437      0.218464     -1.527165
O       9.64002     13.47646      0.63793        -0.200139     -0.232501     -1.490060
O       9.70651     13.58177     13.79274        -0.310339     -0.807831     -2.262693
O       9.73263      2.17375      4.92538        -0.228312     -0.704745     -1.708702
O       9.68385     13.39488      4.97607        -0.621079     -0.066924     -0.154418
O       9.36592      1.77275      9.38834         0.635723      0.292102     -0.601800
O       9.52434     13.56784      9.34131        -0.289447     -0.241586      0.502716
O       9.65392      5.74912      0.66637        -0.415639      0.297801     -1.205337
O       9.77879      5.67669     13.60839        -0.686935      0.230421     -0.733858
O       9.64398      5.89218      4.98861        -0.244926     -0.850124      0.327141
O       9.55138      5.69733      9.24010        -0.401489      0.081705      0.352089
O       9.67902      9.40302      0.66623        -0.078209      0.250023     -2.849083
O       9.57505      9.67672     13.62897        -0.239344     -0.362329     -0.045290
O       9.47115      9.48387      5.15566         0.484464      0.362424     -1.031340
O       9.64404      9.53100      9.36382        -0.490949      0.169683     -1.878590
O       3.81716      1.87157      2.55027         0.301449      0.579568      0.335552
O       3.86210      1.81706     15.87875         0.177898     -0.109288      0.394032
O       3.73665     13.37429      2.78981         1.954406     -0.205286     -0.255924
O       3.93830     13.44962     15.99609        -1.938372      0.225387      0.240468
O      15.34590      1.79232      2.85465        -0.050076      0.693029     -0.253939
O       0.04372      1.88232     15.79276        -1.113286      0.297459     -0.052199
O      15.32689     13.59396      2.65330        -0.520865     -0.418642      0.583411
O      15.31542     13.42780     15.80436         0.416925      0.023689      0.470618
O       3.89866      1.97315      7.09279        -0.316845     -0.291963      0.503484
O       3.83080     13.40308      6.96339        -0.790532     -0.373842      0.778613
O       0.08691      1.85319      6.99390        -0.897730      0.062265      0.517569
O      15.32045     13.34337      6.97253         1.068456      0.312346      0.866090
O       3.86799      1.77774     11.53587        -0.237322      0.534962      0.058628
O       3.80708     13.51035     11.46654         0.623106      0.092185      0.417054
O      15.35487      1.91893     11.51176         0.633203      0.190532      0.035397
O       0.00522     13.31322     11.38575        -0.427011      0.355476      0.812080
O       3.83145      5.76149      2.56192         0.305653      0.117973      0.798319
O       3.82292      5.70680     15.91714        -0.515477      0.622219     -0.428795
O       0.04182      5.80718      2.67093        -1.776489     -0.175137      0.382492
O       0.06041      5.90116     15.73271        -0.344464     -0.394855      0.386312
O       3.84896      5.73000      7.10416        -0.174864      0.496665     -0.035956
O      15.35762      5.80481      7.14999         0.483795     -0.367213      0.384586
O       3.82705      5.88666     11.38081         1.165142     -0.204782      0.742150
O       0.05193      5.62655     11.19620        -1.690913      0.686290      0.999962
O       3.74766      9.45462      2.67039         1.356950      0.921350      0.648354
O       3.79385      9.65256     15.78112        -0.552158      0.081983      0.383625
O      15.29462      9.51139      2.63315        -0.770559      0.386972      0.535972
O      15.32405      9.66440     15.83688         0.938529     -0.464624      0.159741
O       3.83809      9.45769      7.03405        -0.404671      0.433854      0.106944
O       0.00092      9.57849      7.09299        -0.531168     -0.273290      0.206110
O       3.77189      9.41350     11.35809         1.219818      0.440087      0.453935
O      15.34058      9.75491     11.36943        -0.641848     -0.227539      0.084354
O       7.71214      1.93527      2.69859        -0.373358     -0.124019      0.084174
O       7.68811      1.95003     15.91795         0.408943     -0.035725     -0.014584
O       7.65275     13.42442      2.80206        -0.001506     -0.081283      0.020724
O       7.64796     13.39579     15.79147         0.794616      0.029236      0.398596
O       7.65926      1.87032      7.10033         0.372086      0.470573     -0.118955
O       7.57311     13.37893      7.11265         1.182666     -0.102279      0.338631
O       7.66202      1.90168     11.46263        -0.562579      0.213480      0.572689
O       7.65689     13.43725     11.49601        -0.894054     -0.714134      0.206669
O       7.61530      5.78572      2.87747        -0.109678     -0.269799     -0.848269
O       7.59687      5.78865     15.77589         1.540654     -0.400751      0.035403
O       7.65123      5.72178      7.00764        -0.047232      0.271094      0.487045
O       7.69193      5.74614     11.44088        -0.476858      0.023307      0.500837
O       7.65828      9.66240      2.62606        -0.762061     -0.172777      0.417442
O       7.66009      9.63918     15.92858         0.016710     -0.554359     -0.522571
O       7.65730      9.52427      7.23108         0.335936      0.261135      0.204206
O       7.68856      9.62530     11.53366        -0.813589     -0.087485      0.064932
O      11.49617      2.00948      2.70289         0.445648      0.220037      0.453480
O      11.47097      2.01021     15.50682         0.262671     -0.041237      0.694655
O      11.42277     13.34150      2.82498         0.940545     -0.110955      0.370332
O      11.55096     13.61217     15.79615        -0.213542     -0.893061      0.540618
O      11.47378      1.83541      7.19309         0.767377      0.309709     -0.476601
O      11.45282     13.40300      7.11533        -0.192034     -0.013706      0.232209
O      11.48094      2.00480     11.46685         0.314125     -0.560820     -0.013569
O      11.46876     13.46316     11.40586        -0.110381     -0.072583      0.585369
O      11.49477      5.77828      2.84921         0.183830      0.084008     -0.038944
O      11.51214      5.64075     15.83341        -1.064499      0.641370     -0.309080
O      11.55259      5.64781      7.02061        -0.649683     -0.154663      0.996138
O      11.39430      5.82059     11.25812         1.597731     -0.276298      1.073038
O      11.40662      9.63067      2.77921         1.710753     -0.163113      0.349152
O      11.48606      9.62628     15.76486        -0.327415     -0.300792      0.423510
O      11.54173      9.75184      7.32667        -1.168536     -1.262396     -1.004467
O      11.45322      9.58394     11.50151         1.354298      0.267677     -0.331809
O       1.91386      3.92935      2.79642        -0.257430     -1.434036     -0.116488
O       1.96220      3.81657     15.68654        -0.078343      0.977266      0.540779
O       2.06293     15.32416      2.64098        -0.797127      0.779488      0.257533
O       1.89831     15.34593     15.82451         0.143827     -0.720717      0.663310
O      13.46602      3.83078      2.76996         0.123755      0.777594      0.231774
O      13.49003      3.85701     15.84083        -0.086887     -0.646100     -0.545906
O      13.24164     15.35928      2.57364         0.357266      0.722976      1.092914
O      13.40063      0.11614     15.81237         0.573402     -0.630471     -0.477031
O       1.96166      3.79829      7.09443        -0.193981      1.217304      0.447560
O       2.00550     15.27067      7.01851        -0.245679      0.789174      0.546880
O      13.48732      3.81749      7.17439         0.062405     -1.553893     -0.069341
O      13.44425     15.23062      7.05851        -0.084277      1.807514      0.482586
O       1.98714      3.83729     11.44928         0.246834     -0.292653      0.318477
O       1.88838     15.34355     11.40394        -0.296039     -0.480136      0.592969
O      13.43304      3.82844     11.25221        -0.252592      0.655610      0.977314
O      13.42881      0.04661     11.48246         0.151929     -1.249483      0.331110
O       1.99666      7.64728      2.61973        -0.764229     -0.705882      0.491665
O       2.01687      7.71780     15.81508        -0.436470      0.764477      0.014319
O      13.44092      7.67788      2.66036        -0.490720      0.790442      0.450578
O      13.36102      7.61295     15.83237         0.145570      1.259146      0.369210
O       1.84082      7.70035      7.16435         0.475106     -0.813422     -0.056943
O      13.30572      7.63575      7.09511         0.415952      0.546589      0.521616
O       1.72942      7.76998     11.34337         0.205160     -1.024069      0.431321
O      13.45010      7.77335     11.34518         0.158371     -1.362380      0.279386
O       1.84173     11.55132      2.84263         0.160548     -1.108481     -0.580005
O       1.92383     11.52679     15.90034        -0.288733     -1.205699     -0.074796
O      13.38613     11.56447      2.73639         0.291892     -1.631987      0.322481
O      13.42535     11.52895     15.73569        -0.300144      0.079619      1.109403
O       1.89623     11.42855      6.98151         0.358456      1.008918      0.432162
O      13.43989     11.48807      7.23914        -0.144861      0.203743     -0.057284
O       2.09217     11.56813     11.46861        -0.589723     -0.786407     -0.357578
O      13.36246     11.49703     11.31061        -0.140112     -0.124252      0.616268
O       5.73211      3.79490      2.70207         0.229179      0.759910      0.022909
O       5.65975      3.77774     15.75782         0.556040      0.227609      0.211780
O       5.76693     15.34766      2.58259        -0.096820     -0.196848      0.284783
O       5.81885     15.31605     16.01252         0.143978      0.235587      0.094443
O       5.74237      3.88690      7.13098         0.372516     -0.444557     -0.179608
O       5.71930     15.32908      7.09962        -0.204429      0.125776      0.316243
O       5.83699      3.85451     11.62543        -1.473164     -0.047728     -1.136513
O       5.81887     15.35234     11.41645        -0.098074     -0.361513      0.373979
O       5.83506      7.72569      2.70873        -0.557954     -1.189174     -0.185067
O       5.73624      7.65330     15.75782        -0.294216      0.932785      0.998407
O       5.74427      7.66621      7.07559         0.297310     -0.598289      0.361414
O       5.86973      7.59001     11.53228        -0.123659      1.566564      0.051972
O       5.69005     11.44358      2.77843         0.005312      0.015941      0.420056
O       5.69016     11.59111     15.84088         0.408613     -1.892034      0.154829
O       5.62799     11.45274      7.20974         0.601582     -0.181251     -0.269013
O       5.66690     11.45145     11.47706         0.307323      0.891741      0.367664
O       9.59569      3.90738      2.64375        -0.134153     -1.494328      0.805889
O       9.51941      3.88639     15.91016        -0.377617     -0.130437     -1.382169
O       9.77818     15.31439      2.70621        -1.374501      1.009347      0.083228
O       9.47489     15.33109     15.71630         0.271292      1.293564      0.755906
O       9.60634      3.78492      7.05964        -0.282584      0.159914      0.601803
O       9.53912     15.35550      7.06391        -0.001514      0.224741     -0.143673
O       9.58737      3.79583     11.36346        -0.313403      0.914216      0.527198
O       9.62044     15.35206     11.59744        -0.446790     -0.482292     -0.041023
O       9.55288      7.66162      2.81039         0.038606      0.306266      0.169718
O       9.56145      7.67543     15.78485         0.137730     -0.658403     -0.105168
O       9.68130      7.58164      7.13889        -0.325518      0.969259      0.447615
O       9.62475      7.73100     11.50228        -0.765335     -1.400478      0.149919
O       9.56099     11.50530      2.80655        -0.109061     -0.373443     -0.092871
O       9.56198     11.49654     15.79376         0.488981      0.265815      0.107525
O       9.54890     11.54690      7.31132        -0.277922     -0.466198     -0.583723
O       9.61118     11.45474     11.58810        -0.928054      1.588175     -0.608693
