  # total energy = -7882.35263067 
CRSYTAL
PRIMVEC
    15.3600000000000000    0.0000000000000000    0.0000000000000000
     0.0000000000000000   15.3600000000000000    0.0000000000000000
     0.0000000000000000    0.0000000000000000    17.440000000000000
PRESSURE
-0.761145 -0.685762 -3.78621 0.132578 0.324282 -0.051717
PRIMCOORD
320 1
Pb       3.80533      3.77283      4.41457         0.212018      0.180255     -0.568531
Pb       3.86552      3.72997     17.39762        -0.033907      0.134338      0.078926
Pb       3.76249     15.29600      4.41665         0.489255     -0.067348     -0.710207
Pb       3.74977     15.31671     17.35110         0.342236      0.353751     -0.093510
Pb       0.06031      3.75114      4.38711        -0.366430      0.281709     -0.349436
Pb       0.14812      3.85993      0.06247        -0.129336     -0.155422     -0.563040
Pb       0.07097     15.28227      4.31226        -0.153068      0.507421     -0.243655
Pb      15.15134     15.25562      0.01251         0.927897      0.127961     -0.617875
Pb       3.72131      3.87891      8.72827        -0.014980      0.005160     -0.792784
Pb       3.84336      0.01693      8.76664         0.073424     -0.030946     -0.764066
Pb      15.13442      3.98385      8.69262         1.020298     -0.007149     -0.318374
Pb      15.19804      0.12070      8.78163         0.558236     -0.690587     -0.616087
Pb       3.81107      3.74871     12.92974         0.106054      0.025929      0.672733
Pb       3.70178     15.30228     12.89680         0.124232      0.340522      0.307285
Pb       0.03507      3.68238     13.13521         0.144070      0.785041     -0.203507
Pb       0.00707     15.31373     13.00676         0.195464     -0.089206     -0.256760
Pb       3.85512      7.64138      4.31554         0.235295      0.426785     -0.207918
Pb       3.68910      7.55017     17.40011         0.775883      0.106142     -0.110036
Pb       0.15604      7.77763      4.32476        -0.135387     -0.097271     -0.157968
Pb      15.20391      7.66866     17.38804         0.173779      0.084443     -0.572659
Pb       3.89751      7.70214      8.73682        -0.561725     -0.109978      0.135444
Pb      15.34073      7.65566      8.72462         0.176862      0.021402     -0.545569
Pb       3.78416      7.56054     13.00599         0.442595      0.487481      0.036522
Pb       0.03095      7.60926     13.16421        -0.164287      0.008428     -0.525003
Pb       3.70927     11.53199      4.32275         0.260613     -0.295859     -0.281118
Pb       3.91708     11.43047     17.34166        -0.276613      0.483437      0.236184
Pb       0.00545     11.62793      4.26673         0.254437     -0.728734      0.236952
Pb      15.20922     11.51606     17.31431         0.772305      0.002557     -0.495882
Pb       3.80395     11.55473      8.73606         0.230732     -0.190562     -0.534089
Pb      15.27253     11.39148      8.76058         0.354690      0.306346     -0.664968
Pb       3.87361     11.44255     12.97600         0.317192      0.012515     -0.112325
Pb       0.15560     11.50849     13.12657        -0.234401      0.170082     -0.615326
Pb       7.73134      3.66718      4.40231        -0.213496      0.351383     -0.941344
Pb       7.58408      3.83592     17.43075         0.111652      0.094091     -0.257251
Pb       7.75331     15.31744      4.41630        -0.574853      0.007859     -0.863370
Pb       7.50460     15.32039     17.39686        -0.172868      0.349049     -0.151612
Pb       7.65569      3.85432      8.68832        -0.195997     -0.112233     -0.572942
Pb       7.65915     15.29530      8.63929        -0.131533      0.387493     -0.087359
Pb       7.82633      3.98841     13.18342        -0.225043     -0.231423     -0.734751
Pb       7.57344      0.18967     13.00362         0.694210     -0.152036     -0.145883
Pb       7.67341      7.51783      4.29930        -0.167321     -0.052163     -0.344289
Pb       7.54288      7.70118     17.43927         0.230984     -0.029556     -0.415126
Pb       7.63595      7.77903      8.68948         0.205256     -0.213880     -0.312802
Pb       7.59311      7.65052     12.96362         0.107659      0.063938      0.319037
Pb       7.71595     11.40679      4.40165        -0.030440      0.557468     -0.460871
Pb       7.56460     11.57590     17.39543        -0.098942     -0.300893     -0.040400
Pb       7.65010     11.53515      8.68944        -0.062079      0.035548     -0.334958
Pb       7.76799     11.54807     13.00560         0.034418     -0.138013     -0.400080
Pb      11.47448      3.73134      4.31712        -0.161638      0.591211     -0.560846
Pb      11.63010      3.80499      0.09203        -0.308631      0.131708     -0.543600
Pb      11.54458     15.24861      4.33379        -0.235801     -0.115628     -0.370061
Pb      11.35136     15.24227      0.01093         0.064662      0.461385     -0.834449
Pb      11.43435      4.02079      8.71445         0.220722     -0.307229     -0.924357
Pb      11.45102     15.32792      8.67517         0.157879      0.064443     -0.407561
Pb      11.59248      3.70164     13.27925        -0.329409      0.131268     -1.231819
Pb      11.51121     15.33309     13.03927        -0.085792      0.195119     -0.709995
Pb      11.49281      7.68833      4.21862         0.180303     -0.722884      0.067637
Pb      11.47525      7.60997      0.07218        -0.259563      0.121523     -0.850540
Pb      11.53073      7.69509      8.70312         0.297025      0.054289     -0.816797
Pb      11.41131      7.64010     13.11467         0.362468      0.244478     -0.777918
Pb      11.56828     11.40346      4.32596        -0.354722      0.736877     -0.076946
Pb      11.32798     11.46069     17.39832         0.367966      0.243340     -0.392287
Pb      11.56041     11.52595      8.75605         0.071792     -0.148494     -0.522056
Pb      11.51121     11.45283     13.02904         0.134578     -0.112928     -0.609106
Ti       1.85121      1.93792      2.24726         0.715092     -0.675870     -0.075833
Ti       1.87451      1.88871     15.40166         0.481244     -0.220388     -0.822563
Ti       1.89106     13.46563      2.17659         1.534546     -0.189085     -0.163367
Ti       1.97352     13.47018     15.30826        -0.593552     -0.744553      1.508835
Ti      13.36679      1.87020      2.24845         0.421494      0.338139     -0.315114
Ti      13.38332      1.90422     15.43174         0.254337     -0.405471      0.985815
Ti      13.41674     13.32500      2.23649        -0.673656      0.300280      0.393851
Ti      13.39276     13.49020     15.23426         0.572841     -0.743928      1.108418
Ti       1.85893      1.85990      6.62961         0.197853      0.704164      0.284092
Ti       1.93712     13.43582      6.72989        -0.442203     -0.490252      0.805791
Ti      13.42108      1.93381      6.63188        -0.213689      0.121948      0.558450
Ti      13.46473     13.41430      6.62226         0.696940     -0.415999     -0.028659
Ti       1.82884      1.92973     10.92419         0.610438     -0.254590      0.926850
Ti       1.94529     13.40896     10.90541        -0.475827      0.114381     -0.645061
Ti      13.46586      1.98959     10.97564        -0.944440     -0.514663      0.673166
Ti      13.46529     13.40547     10.95498         0.265056     -0.411901     -0.215103
Ti       1.93794      5.75657      2.30086         0.192424     -0.118922     -0.322108
Ti       1.92911      5.74429     15.35889         0.242780     -1.002874     -0.348554
Ti      13.51272      5.77289      2.26022        -0.662506     -0.513528      0.520992
Ti      13.44581      5.72119     15.32926         0.070886      0.536526      0.113797
Ti       1.97628      5.76395      6.55270        -1.311582     -0.183214      0.524206
Ti      13.44504      5.80510      6.55409         0.286377      0.108246     -0.422320
Ti       1.90596      5.72747     11.05304        -0.648147     -0.116372     -1.472938
Ti      13.45443      5.78242     11.02701         0.003722      0.112495      1.298802
Ti       1.96580      9.64552      2.18192         0.376240     -0.600407      0.601324
Ti       2.04637      9.57197     15.39035        -0.792578      0.622695      0.293472
Ti      13.43238      9.54868      2.25096         0.700748     -0.271224     -0.001997
Ti      13.44869      9.65331     15.36110        -0.104499     -0.584045     -1.212524
Ti       1.98583      9.52999      6.78404        -0.753538      0.570147     -0.765467
Ti      13.41616      9.58948      6.56877         1.048332     -0.460864      0.882350
Ti       1.94490      9.59267     10.98416         0.124838     -0.579641     -0.862674
Ti      13.53034      9.52850     11.04766        -0.618308      0.841770     -0.051801
Ti       5.60402      1.88048      2.34671         1.067640     -0.567726     -0.639192
Ti       5.73261      1.96275     15.21859        -0.709627      0.564212      0.351584
Ti       5.70437     13.42225      2.29385         0.405950      0.711888     -0.204338
Ti       5.76209     13.52314     15.18477        -0.488634     -0.245191      0.354974
Ti       5.67736      1.88969      6.62349         0.598674      0.302419      0.125843
Ti       5.74822     13.41955      6.59341         0.084102      0.101750      0.216370
Ti       5.68952      1.92522     11.00765         0.568663      0.216258     -0.650059
Ti       5.79326     13.46902     10.99174         0.426299     -0.481320      0.191895
Ti       5.77494      5.70512      2.28286         0.242377      0.127475      0.182719
Ti       5.76908      5.73164     15.37829         0.102691      0.267803     -1.014225
Ti       5.73465      5.82816      6.72356         0.250281     -1.385952     -0.828817
Ti       5.72348      5.67723     11.00059         1.410876      0.862087     -0.182596
Ti       5.79178      9.63687      2.34202        -0.781308     -0.426217     -1.336611
Ti       5.82984      9.65917     15.32273        -0.047533     -1.212468     -0.318886
Ti       5.78030      9.59407      6.63057        -0.464017      0.557463      0.355520
Ti       5.80059      9.58123     11.02842         0.422998      0.078479      0.187346
Ti       9.51947      1.86781      2.25023        -0.293238      0.856499      0.507997
Ti       9.54882      1.97351     15.37698        -0.414387     -0.613697      0.130168
Ti       9.58131     13.44646      2.20242        -0.729606     -0.404555      1.359233
Ti       9.50794     13.42959     15.32931         0.152475      0.956238     -0.548519
Ti       9.57071      1.96264      6.70284         0.067005     -0.841538     -0.507832
Ti       9.62730     13.40236      6.65589         0.601216     -0.251771     -0.436144
Ti       9.64532      1.96924     10.91917        -0.499479      0.323548      1.426650
Ti       9.63973     13.47065     11.01625        -0.013255     -0.374692     -0.279982
Ti       9.64669      5.77052      2.21352        -0.851660     -0.943195      0.572189
Ti       9.60074      5.76586     15.40726        -0.525207      0.477047      1.090178
Ti       9.54949      5.78200      6.55877         0.999760      0.257709     -0.356828
Ti       9.57675      5.80711     10.92547        -0.184588     -0.741722      0.039990
Ti       9.57434      9.66555      2.31407        -0.532762     -0.619111     -0.084158
Ti       9.61838      9.59981     15.34400        -1.178971     -0.306471      0.340740
Ti       9.65938      9.57036      6.53872        -0.009926      0.271179      0.536767
Ti       9.65246      9.56914     10.89543        -0.308515      0.688138      1.425571
O       2.03386      1.91731      0.45325        -0.797727     -0.019673      0.950043
O       1.86417      1.87616     13.53047         0.064759      0.072548      1.764547
O       1.94152     13.47659      0.41281        -0.335484     -0.142291      0.840863
O       1.96644     13.54225     13.56354        -0.163482     -0.267355     -0.702663
O      13.32920      1.97388      0.43328         0.115596     -0.317843      1.274764
O      13.27069      1.87379     13.65781         0.547191      0.004135      0.295952
O      13.47163     13.19344      0.44311        -0.195529      0.692147      1.179683
O      13.56354     13.61321     13.47864        -0.471797     -0.449254      0.248810
O       1.80614      1.86809      4.82288         0.095703     -0.210429      0.340945
O       2.11059     13.36742      4.93268        -0.682703      0.248592      0.350376
O      13.43848      1.86479      4.84767         0.069166      0.025525      0.404052
O      13.45199     13.36034      4.74841         0.072206      0.284942      1.691221
O       1.80702      1.94476      9.18123         0.355633      0.151306      0.066369
O       1.80751     13.43935      9.11460         0.712114     -0.084391      0.886432
O      13.48233      2.00036      9.20712        -0.175053      0.022123      0.557542
O      13.51834     13.39621      9.14424        -0.337301      0.261217      0.835489
O       1.93199      5.55910      0.47756        -0.150738      0.851678      1.068109
O       1.88970      5.76516     13.53871         0.083015     -0.225356      0.733670
O      13.34899      5.78302      0.42670         0.412787      0.161409      0.801041
O      13.54940      5.76056     13.52644        -0.387120      0.087259      1.193809
O       1.83195      5.85876      4.75611         0.345256     -0.319273      0.561313
O      13.53349      5.81767      4.77102        -0.230208     -0.187801      0.898978
O       1.88060      5.67807      9.21612         0.475369     -0.197399      1.429484
O      13.49538      5.82563      9.24817        -0.442631     -0.326378      0.497982
O       2.00410      9.71518      0.42415        -0.170916     -0.665487     -0.071245
O       2.14188      9.49387     13.60712        -0.586764      0.368964      0.301380
O      13.41518      9.55578      0.44138         0.020045      0.054154      0.756097
O      13.43960      9.57402     13.54660         0.060041      0.293612      0.808960
O       2.07840      9.44981      4.95131        -0.391011      0.550297      1.117122
O      13.48412      9.62682      4.79141        -0.033000     -0.126184      0.349531
O       1.87379      9.51696      9.14796         0.401300      0.282049      2.132919
O      13.44206      9.39039      9.25431         0.027301      0.501393      0.867860
O       5.62646      1.80918      0.52532         0.261958      0.184897      1.377020
O       5.70883      2.03460     13.41162         0.078947     -0.434861      0.549651
O       5.72432     13.44925      0.48318         0.205941      0.278323      0.622767
O       5.81788     13.39366     13.38626        -0.106683      0.460283      1.522632
O       5.69540      1.82943      4.82444         0.019173      0.345074      0.691659
O       5.69497     13.46459      4.80887         0.045203     -0.267620      0.969098
O       5.62201      1.88537      9.19849         0.430423      0.209814      1.039342
O       5.87114     13.47916      9.20990        -0.212089     -0.034504      0.291563
O       5.77697      5.78730      0.48980         0.014910     -0.069642      0.669721
O       5.89301      5.68064     13.53041        -0.404435      0.039523      1.358635
O       5.77296      5.89648      4.94866        -0.028017     -0.286921      0.446233
O       5.73194      5.74924      9.19223         0.097320     -0.214171      0.294723
O       5.79310      9.58483      0.47220        -0.008811      0.028962      1.565087
O       5.78948      9.66747     13.51111        -0.035057      0.014209      1.151851
O       5.64523      9.57862      4.87065         0.545235      0.174983      0.497323
O       5.86384      9.59133      9.24149        -0.078418     -0.109677      0.307821
O       9.46737      1.86685      0.50383         0.164970      0.114417     -0.477565
O       9.60051      2.01530     13.58497         0.320666     -0.287472      0.682301
O       9.53628     13.30135      0.42747         0.208656      0.468346      0.319272
O       9.43563     13.42032     13.52893         0.435307      0.205521      0.689242
O       9.56577      1.77544      4.87011         0.169688      0.467594      0.795564
O       9.78128     13.36883      4.87823        -0.385200      0.858972      0.432166
O       9.55331      2.07729      9.15656         0.501643      0.037563      0.316977
O       9.73438     13.32321      9.21017        -0.154630      0.164208      0.373987
O       9.43724      5.72195      0.43675         0.910059      0.032751      0.564460
O       9.49768      5.73795     13.63326         0.346024      0.508354      0.194478
O       9.72397      5.75041      4.74766        -0.558971      0.129681      1.373749
O       9.58417      5.72687      9.09177         0.030874      0.013937      1.095089
O       9.52947      9.67648      0.53137         0.301198      0.363628      0.845308
O       9.58096      9.61990     13.57360         0.386499     -0.212874      0.261995
O       9.59359      9.57997      4.74932         0.297033     -0.039251      0.335456
O       9.69985      9.69372      9.13057        -0.157083     -0.293463      0.308957
O       3.75604      2.03742      2.73555         0.135847     -0.053803      0.141603
O       3.79212      1.97048     15.80227        -0.076176     -0.935340     -0.722566
O       3.85470     13.38877      2.64695        -1.004187     -0.152351      0.095416
O       3.85629     13.49533     15.72190         0.869623      0.157576     -0.548857
O      15.34455      1.77856      2.63744        -0.466688     -0.248711     -0.049878
O      15.31506      1.89771     15.87128         0.040852      0.216068     -0.447000
O       0.05645     13.54122      2.73229        -0.713294     -0.525501     -0.524994
O      15.33678     13.37558     15.73632        -0.262582     -0.040527     -0.164951
O       3.81860      1.84006      7.06846        -0.416705      0.271534     -0.152764
O       3.90594     13.46289      7.15184        -0.804581     -0.123292     -0.144900
O       0.06131      1.99698      7.16864        -1.377823     -0.105087     -0.706169
O       0.02965     13.42263      7.04176        -0.575205     -0.214833     -0.707038
O       3.74868      1.89548     11.30844         0.749685     -0.172171      0.006013
O       3.85030     13.53893     11.32039         0.266698     -0.113365     -0.214407
O       0.01802      2.03665     11.55141        -1.173098     -0.697630     -0.908042
O       0.12647     13.28509     11.39665        -1.415226      0.364171      0.259728
O       3.87603      5.64410      2.70460        -0.191320     -0.143282     -0.041309
O       3.80497      5.73772     15.80999         0.225704      0.024477     -0.378006
O      15.35242      5.92035      2.63087         0.823229     -0.041837     -0.389320
O      15.34034      5.71906     15.83071        -0.012077     -0.111466     -0.197288
O       3.82406      5.75584      7.10740        -0.118178      0.126436     -0.213654
O       0.00862      5.77451      7.11756        -0.058978     -0.262605     -0.599878
O       3.91084      5.77631     11.38481        -1.172434     -0.242715      0.053986
O       0.03790      5.70515     11.41196        -0.505514     -0.221784      0.051489
O       3.89483      9.61763      2.74299        -0.177963      0.231869     -0.432441
O       3.84442      9.52639     15.86425         0.840810     -0.137539     -0.398050
O       0.14287      9.51990      2.63111        -1.224726     -0.337581     -0.145886
O      15.34042      9.61931     15.77408         0.602721     -0.043237     -0.196135
O       3.89601      9.62356      7.22439        -0.090441     -0.297839     -0.307999
O      15.34884      9.59465      7.19396        -0.159133     -0.213113     -0.844140
O       3.88866      9.46101     11.43202        -0.669777      0.541722     -0.404629
O       0.09549      9.77440     11.46183         0.096488     -0.438642     -0.079109
O       7.65035      1.82115      2.77470         0.399216      0.070245     -0.103095
O       7.56524      2.00760     15.61626         0.886877      0.201676      0.234979
O       7.70933     13.56384      2.70448         0.355953     -0.220271     -0.236079
O       7.58077     13.44963     15.81410        -0.598005     -0.113584     -0.554032
O       7.69035      1.91374      7.10300        -0.706884     -0.037424     -0.156445
O       7.74183     13.46933      6.96976        -0.753426     -0.389607      0.095257
O       7.80393      1.89737     11.35524        -0.865924      0.086703     -0.209642
O       7.74423     13.41711     11.30237        -0.249675      0.204352      0.058019
O       7.72250      5.76888      2.75779        -0.305201     -0.017059     -0.223640
O       7.66337      5.65608     15.86468        -0.458081      0.134969     -0.500066
O       7.68991      5.88593      7.00778        -0.092514     -0.228817      0.018054
O       7.68906      5.75809     11.36114        -0.230154     -0.095742     -0.141012
O       7.68803      9.66390      2.76897         0.123885     -0.548912     -0.084507
O       7.69337      9.57570     15.79786        -0.993935      0.586746     -0.347461
O       7.73672      9.71312      6.98506        -0.341471     -0.708332     -0.003128
O       7.73560      9.62591     11.29831        -0.212111      0.270091     -0.006824
O      11.51860      2.02571      2.65095         0.231310     -0.241361     -0.078534
O      11.41852      1.79195     15.87817         0.469953      0.238360     -0.330272
O      11.54167     13.24833      2.66412         0.050266      0.192127     -0.518223
O      11.48054     13.54416     15.69943        -0.190742     -0.175280     -0.250690
O      11.46410      1.96935      7.07342         0.940495     -0.300682     -0.149817
O      11.61404     13.49873      7.02111        -0.235094      0.130138      0.184956
O      11.60101      1.97301     11.57958        -0.640590     -0.110261     -0.849952
O      11.56145     13.33993     11.43684        -0.153787      0.695471      0.011283
O      11.55967      5.72381      2.64160         0.034329     -0.046502     -0.262647
O      11.53481      5.77627     15.76035        -0.127654      0.283441     -0.189142
O      11.55477      5.72831      6.98663        -0.499400      0.010988      0.220337
O      11.49682      5.99293     11.33786         0.379588     -0.242584     -0.109895
O      11.53326      9.54424      2.65653        -0.167824      0.955359     -0.292369
O      11.41999      9.73194     15.83255         0.873597     -0.764603     -0.294576
O      11.57278      9.61338      7.08788        -0.504144     -0.230739     -0.488413
O      11.60909      9.54856     11.46272        -1.047816     -0.347654     -0.239936
O       1.76991      3.80411      2.69783         0.009252      0.382361      0.111216
O       2.01568      3.76468     15.81738        -1.256933      0.649335     -0.441612
O       2.08053     15.33570      2.71508        -0.726052     -0.021559     -0.306222
O       1.81418     15.29015     15.79415         0.281779      1.148592     -0.105978
O      13.59402      3.87100      2.65547        -0.319332     -0.636944     -0.232192
O      13.36607      3.80003     15.75979        -0.176295      0.209522     -0.292700
O      13.26518     15.27158      2.59704         0.522696      0.326386     -0.352786
O      13.48983     15.31765     15.89977        -0.618531      0.102106     -0.586066
O       1.96064      3.85518      6.72553         0.268249      0.124906      0.563504
O       1.81641      0.00035      7.10158         0.577612     -0.394168     -0.420053
O      13.42458      3.83704      7.09075         0.024941      0.074239     -0.466069
O      13.49368      0.04296      7.15610        -0.190557     -0.126850     -0.734178
O       1.96799      3.79572     11.43432        -0.089132      0.307705     -0.208618
O       1.85404     15.31033     11.38866        -0.111410      0.794248     -0.385991
O      13.36540      3.86930     11.51548         0.306910      0.233755     -0.539441
O      13.44880     15.34714     11.30296         0.411502      0.612038      0.045217
O       2.15361      7.62442      2.70246        -0.848585      0.390151     -0.918103
O       1.94748      7.57597     15.72823        -0.475033      1.136197      0.331328
O      13.38482      7.70300      2.71532         0.284331      0.080995     -0.594374
O      13.45490      7.74450     15.68449        -0.214573     -1.164006      0.394024
O       1.85635      7.66612      7.10810         0.691984     -0.487721     -0.162729
O      13.42727      7.66864      7.06350        -0.054092     -0.008846     -0.361859
O       1.89018      7.60429     11.39342         0.115420      1.135426      0.120958
O      13.63709      7.72281     11.49240        -0.121851     -1.095783     -0.060076
O       1.87400     11.47755      2.67095         0.262242      1.163381      0.014639
O       2.06253     11.52434     15.71434        -0.484599     -0.446391     -0.486197
O      13.57039     11.42494      2.73236        -0.037843      0.526685     -0.512879
O      13.39745     11.52091     15.61667        -0.060327      0.866874      0.157392
O       1.95761     11.44890      7.21762         0.074661      0.941134     -0.577742
O      13.44840     11.44871      7.06957        -0.009287      1.176592     -0.299926
O       2.05643     11.52860     11.42482         0.270658     -0.819618     -0.195663
O      13.37867     11.54186     11.21439         0.419080     -0.687007      0.592533
O       5.84921      3.81945      2.70603        -0.082648     -0.094767      0.129972
O       5.64332      3.81631     15.88047         0.509902      0.232151     -0.611423
O       5.70696     15.35399      2.77754        -0.383727      0.165606     -0.226020
O       5.72956      0.14509     15.67259         0.124022     -2.185640     -0.387773
O       5.77951      3.80954      6.91964        -0.132399      0.344944      0.413276
O       5.71917     15.33410      7.05636         0.514384     -0.102773     -0.023463
O       5.74161      3.82269     11.42763        -0.027537     -0.356767     -0.709786
O       5.79538      0.04385     11.44911        -0.081016     -0.006295     -0.366930
O       5.80454      7.67305      2.80588        -0.056283     -0.060102     -0.661451
O       5.75732      7.61602     15.65035         0.100885      0.631498      0.274888
O       5.66954      7.68737      7.20042         0.843460      0.696808     -0.450795
O       5.82845      7.67229     11.46167        -0.235237     -0.157099     -0.519387
O       5.80475     11.55285      2.58193         0.287794     -0.540572      0.491819
O       5.70050     11.52197     15.78103         0.217506      0.299994     -0.812235
O       5.73495     11.50973      7.11907         0.297375      0.199290     -0.361268
O       5.73375     11.55550     11.37301        -0.113895     -0.329885     -0.232359
O       9.58299      3.83552      2.68496        -0.022868     -0.574400      0.078185
O       9.57374      3.88231     15.73835         0.318329     -0.855118      0.081803
O       9.72951     15.35447      2.57071         0.325516     -0.796339      0.227058
O       9.34295     15.35207     15.74274         0.795216      0.225785      0.148975
O       9.57341      3.85937      6.93816        -0.201514      0.613549      0.167257
O       9.55120      0.00705      7.19643         0.682671     -0.208932     -0.379976
O       9.57408      3.95175     11.51519         0.827685     -0.542779     -0.897941
O       9.74027      0.02381     11.28188        -0.004772      0.072877     -0.024070
O       9.67547      7.63981      2.53757        -0.197014      1.023921      0.257650
O       9.45935      7.71828     15.88932         1.020156     -0.437316     -0.583344
O       9.69020      7.70356      6.98727        -0.276112     -0.044702     -0.090247
O       9.43813      7.70225     11.40472         0.947360      0.077288     -0.429146
O       9.50580     11.57891      2.83633         0.518899     -0.742850     -0.791935
O       9.49763     11.59266     15.72013         0.167962     -0.771952      0.109636
O       9.72525     11.51114      6.85333        -0.150362     -0.056059      0.578082
O       9.64821     11.47925     11.51280         0.148766     -0.123364     -0.645221
