  # total energy = -7863.04023115 
CRSYTAL
PRIMVEC
    15.010000000000000    0.0000000000000000    0.0000000000000000
     0.0000000000000000   15.010000000000000    0.0000000000000000
     0.0000000000000000    0.0000000000000000    16.400000000000000
PRESSURE
16.3719 16.6078 7.41946 -0.167814 -0.205896 -0.0881
PRIMCOORD
320 1
Pb       3.70388      3.63014      4.13073        -0.113279      0.197993      0.050051
Pb       3.61793      3.72841     16.38443         0.567994      0.182456     -0.988679
Pb       3.78344     14.94249      4.16032        -0.089075     -0.190842     -0.474375
Pb       3.85790     14.97971      0.09864        -0.338832     -0.125361     -0.170682
Pb      14.95062      3.83404      4.17936         0.002365     -0.751282      0.376737
Pb      14.88928      3.63358      0.13678         0.499014      0.579067     -0.499700
Pb      14.87918      0.02950      4.28481         0.573737     -0.099281     -0.231781
Pb       0.06140     14.98887      0.15683        -0.469154     -0.401538     -0.374297
Pb       3.49021      3.72937      8.26283         1.076281      0.127585     -0.676346
Pb       3.71456      0.18352      8.24146        -0.075501     -0.711739     -0.546280
Pb      14.80423      3.75210      8.29292         0.526858     -0.119965     -0.618816
Pb      14.86208      0.00886      8.21359         0.220585      0.422571     -0.247585
Pb       3.74605      3.65036     12.39534        -0.877019      0.240486      0.994395
Pb       3.62404     14.98429     12.32692         0.653659     -0.598696      0.259634
Pb      14.89538      3.79606     12.37227         0.312558      0.236827     -0.031443
Pb      14.97856     14.98601     12.32943        -0.028159      0.016975      0.142213
Pb       3.88301      7.53714      4.18538         0.208604     -0.322357      0.235484
Pb       3.76849      7.57676      0.05770        -0.012354     -0.351405     -0.586267
Pb       0.18132      7.53847      4.19352        -0.762932     -0.309317     -0.370900
Pb       0.03844      7.41678      0.07823         0.127073      0.755317     -0.419860
Pb       3.71331      7.53731      8.33622         0.533651     -0.678177     -0.933076
Pb       0.06971      7.55113      8.32381        -1.024168     -0.218535     -0.685794
Pb       3.63066      7.37907     12.34447        -0.023072      0.124814      0.137454
Pb      14.88117      7.48746     12.29218         0.730636      0.150614      0.306265
Pb       3.89701     11.04385      4.20825        -0.472151      0.863964      0.322610
Pb       3.76958     11.20569      0.15889        -0.073571      0.096047     -0.389989
Pb       0.14269     11.12095      4.17338        -0.331136      0.530819     -0.077738
Pb       0.10449     11.28161      0.16687        -0.667403     -0.795681     -0.470141
Pb       3.72715     11.28922      8.26627         0.202806      0.457472     -0.666737
Pb       0.09671     11.28019      8.19302        -0.582930     -0.308376     -0.571912
Pb       3.72274     11.16832     12.30733         0.299773      0.658794     -0.716025
Pb       0.01053     11.26237     12.29387         0.250054     -0.459550      0.520698
Pb       7.40378      3.90029      4.03958         0.437152     -0.644937      0.163381
Pb       7.44020      3.69135      0.09208         0.729923      0.127506     -1.052821
Pb       7.53045     14.89743      4.10209        -0.549154      0.280406      0.020811
Pb       7.52227     14.86531      0.04296        -0.156877      0.695501     -0.039118
Pb       7.40402      3.77203      8.29432        -0.254711     -0.365289     -0.308579
Pb       7.40273      0.11686      8.27206         0.481839     -0.115271     -0.748307
Pb       7.31830      3.80474     12.40493         0.455822     -0.994114      0.146496
Pb       7.42536      0.00473     12.23280         0.035129     -0.154158      0.258326
Pb       7.66261      7.43577      4.11955        -0.923608      0.001123      0.317704
Pb       7.51653      7.39690     16.35664        -0.023544      0.482439     -0.176864
Pb       7.60687      7.37630      8.27810        -0.843300      0.883364     -0.043339
Pb       7.45110      7.60531     12.25411         0.082081      0.304964      0.354120
Pb       7.62012     11.06032      4.18036        -0.539088      1.134773      0.022747
Pb       7.45957     11.26541      0.00347         0.423894     -0.172169     -0.386463
Pb       7.62835     11.29770      8.18355        -0.353999     -0.164236      0.382209
Pb       7.49022     11.36271     12.18632        -0.164648     -0.507704     -0.005453
Pb      11.20955      3.79965      4.18173        -0.082839      0.143182     -0.107300
Pb      11.25651      3.77259      0.10612        -0.322925     -0.167800     -0.580067
Pb      11.24992     14.89863      4.06637         0.068061      0.134006      1.511481
Pb      11.33174     14.97150      0.05116        -0.147392     -0.058449     -0.554662
Pb      11.19195      3.68856      8.39418         0.200739     -0.178586     -0.600064
Pb      11.18765      0.01490      8.25401        -0.350572      0.099510     -0.687289
Pb      11.09835      3.74910     12.33545         0.631270     -0.509783      0.347423
Pb      11.17751     14.91751     12.44013         0.007637     -0.151243     -0.222438
Pb      11.39309      7.49989      4.15998        -0.203190     -0.120037      0.135876
Pb      11.23315      7.40150      0.05605        -0.194287      0.827158     -0.500594
Pb      11.27472      7.44787      8.28005         0.418269      0.436768     -0.349707
Pb      11.05309      7.45075     12.32672         1.077879      0.899721     -0.124887
Pb      11.26563     11.12739      4.10911         0.733537      0.708351      0.068595
Pb      11.22536     11.23856      0.03589         0.473474     -0.028210     -0.259683
Pb      11.33850     11.40126      8.27493         0.060897     -0.404917     -0.504634
Pb      11.13432     11.23377     12.32814         0.312494      0.307084     -0.124349
Ti       1.90080      1.83958      1.97418         0.065734     -0.280149      1.591881
Ti       1.86620      1.82820     14.41791         0.381934      0.099843     -0.237270
Ti       1.91132     13.10058      2.02358         0.141653      0.147220      1.374725
Ti       1.92533     13.07463     14.26536        -0.456366      0.436463      0.787599
Ti      13.11767      1.82903      2.17824         0.345944      0.084299      0.371917
Ti      13.13512      1.81389     14.38623        -0.845156     -0.293879     -0.406314
Ti      13.21453     13.04241      2.12662        -0.851474      0.054171     -0.050972
Ti      13.21321     13.03244     14.32522        -0.659449      0.215634      0.379703
Ti       1.80823      1.83526      6.20023        -0.292923      1.580728     -0.591033
Ti       1.92177     13.18939      6.12701         0.152268     -1.384338     -0.250214
Ti      13.01464      1.96204      6.24684         0.055018     -0.601197     -0.577080
Ti      13.15016     13.15854      6.22905        -0.947605     -0.764963     -1.056268
Ti       1.74114      1.96697     10.39724         1.071143     -0.517275     -0.879510
Ti       1.78368     13.18897     10.19327         1.194629     -0.827238      0.890588
Ti      12.99981      1.77524     10.39434         0.005520      0.313360     -0.559727
Ti      13.13844     13.09460     10.30662        -1.286127      0.763157     -0.276308
Ti       1.97087      5.61076      2.02704        -1.129189     -0.495624     -0.318871
Ti       1.85340      5.62495     14.40717        -0.199940     -0.404846      0.083154
Ti      13.14010      5.62458      2.15996         0.218183     -0.327595      0.307933
Ti      13.15872      5.65980     14.46035        -0.525979     -0.114470     -0.664961
Ti       1.89443      5.59759      6.14258        -0.099117     -0.036480      0.170418
Ti      13.14336      5.70070      6.26409         0.228998     -0.293281     -0.614446
Ti       1.79837      5.63916     10.18510        -0.512909     -0.001836      0.457256
Ti      13.00222      5.62749     10.31661         1.130440      0.428545     -0.635694
Ti       1.92897      9.30422      2.07405        -0.842963      0.475688     -0.167911
Ti       1.89942      9.36824     14.40139        -1.671428     -0.676506     -0.214438
Ti      13.05885      9.30618      2.00159         0.596219      0.838259     -0.159629
Ti      13.16644      9.36450     14.25396        -0.026961     -0.240036      1.210312
Ti       1.90424      9.31015      6.22625        -0.813102      1.069515      0.020704
Ti      13.11485      9.37817      6.21097         0.674624      0.419113      0.395457
Ti       1.97223      9.39548     10.23095        -2.130057      0.320614      0.502548
Ti      13.18725      9.41954     10.27844        -0.427150     -1.053878     -1.094430
Ti       5.63497      1.93080      1.97012        -0.389127     -2.573678      1.501891
Ti       5.64162      1.79330     14.38173        -0.494663      0.756750      0.362500
Ti       5.64702     13.03862      2.07764         0.226119      1.039034      1.111446
Ti       5.57628     13.09430     14.37662         0.843883      0.200444     -0.507911
Ti       5.58127      1.85759      6.02399        -0.037592      0.346085      0.099759
Ti       5.65907     13.10702      6.19169        -1.043733      0.710959     -0.484895
Ti       5.44913      1.87592     10.35226         1.082597     -0.872341      0.032851
Ti       5.56925     13.14570     10.12731        -0.329213     -0.775597      0.761145
Ti       5.55408      5.58259      1.99091         1.079875      1.468287      0.127821
Ti       5.62184      5.66053     14.32098        -0.545768     -0.503461      0.773368
Ti       5.64786      5.60068      6.18073        -0.765030      0.030202     -0.263178
Ti       5.55215      5.55325     10.30821         0.093680      0.308496     -1.045604
Ti       5.68401      9.33665      2.04380        -0.773648     -0.618811      0.425447
Ti       5.62110      9.43352     14.27342         0.075337     -1.137092      0.323838
Ti       5.71932      9.35657      6.38953        -0.480601     -0.124168     -0.611247
Ti       5.72133      9.32076     10.25623         0.717546      1.315352      0.019991
Ti       9.41353      1.79249      2.00959        -0.727672      0.738790     -0.536431
Ti       9.37915      1.85926     14.34753        -0.186960     -0.030654      0.414341
Ti       9.40927     13.12630      2.04652         0.160398     -0.180074      0.826082
Ti       9.34829     13.11498     14.30902         0.771828      1.081099     -0.100533
Ti       9.26811      2.05372      6.15217         0.957822     -3.027914     -0.048960
Ti       9.37337     13.17019      6.15409         0.776675      0.974595      0.772240
Ti       9.23449      1.87457     10.27772         0.091122     -0.288986     -0.471442
Ti       9.31034     13.16206     10.18814         0.933313     -0.165214      1.010714
Ti       9.35674      5.66578      2.03825         0.086790     -0.756093     -0.468774
Ti       9.40857      5.62948     14.19913        -0.988486     -0.200642      2.061665
Ti       9.36157      5.66489      6.30749         0.960282     -0.161206     -1.449100
Ti       9.24819      5.60471     10.34745         0.684116      0.826610     -0.432774
Ti       9.31903      9.39300      2.11384         1.680055     -0.155931     -1.596435
Ti       9.36820      9.45482     14.35785         0.182104     -0.541697     -0.096181
Ti       9.45233      9.39575      6.19726         0.931401     -0.223575      0.439258
Ti       9.49192      9.40795     10.19013        -1.048886     -0.358774      0.603264
O       2.01068      1.90967      0.16865        -0.622537     -0.666150     -0.405876
O       1.78093      1.79523     12.58857         0.307164      0.244186     -1.116934
O       1.78285     13.08829      0.20756         0.174872      0.099663     -1.042410
O       2.01104     13.03213     12.42610        -0.282394      0.089331      0.924163
O      13.14657      1.83420      0.35987        -0.340042      0.142871     -1.328851
O      12.96947      1.70375     12.43785         0.477046      0.508372      0.608052
O      13.13058     12.93075      0.26461         0.475960      1.101725     -0.691214
O      13.09427     13.25031     12.48475         0.023772     -0.720392     -0.523965
O       1.77423      1.87922      4.34737         0.523612      0.243860     -0.215330
O       1.80959     13.16388      4.27116         0.007784     -0.082446      0.466391
O      13.02237      1.92031      4.33832         0.309966     -0.136779      0.018037
O      13.12637     13.05312      4.25297         0.326425      0.164563      0.654007
O       1.81323      2.08148      8.50965         0.134051     -1.008233      0.550408
O       1.78365     13.11438      8.41763         0.056181      0.014811     -0.727096
O      13.12849      1.92189      8.45274         0.138958     -0.084125      0.592852
O      13.12113     13.24122      8.39317         0.227338     -0.478750      0.472740
O       1.88770      5.52894      0.14018        -0.211253      0.273532      1.288279
O       1.82538      5.77629     12.58458        -0.220101     -0.379784     -1.315846
O      13.14117      5.57548      0.23480        -0.339131     -0.008658      0.423966
O      13.17970      5.61541     12.59388        -0.276986     -0.008759     -0.859162
O       1.95149      5.73293      4.25778        -0.460017     -0.642918      0.418478
O      13.18589      5.73422      4.32818        -0.234896     -0.607446      0.248502
O       1.87819      5.59157      8.34274         0.077672      0.342403      0.837769
O      13.11713      5.53804      8.42790        -0.476804      0.171764      0.664503
O       1.82641      9.27738      0.23431         0.242133      0.436291      0.178444
O       1.95231      9.35001     12.53884         0.128964     -0.108551     -0.215611
O      13.03945      9.27090      0.18108         0.014391      0.018553      0.336119
O      13.14027      9.37345     12.42009        -0.408118      0.239658      0.670795
O       1.96699      9.26020      4.32968        -0.473844      0.018738     -0.148418
O      12.96723      9.40654      4.34481         0.786126     -0.198672      0.072564
O       1.75513      9.35682      8.36949         0.370190      0.026106      0.719076
O      13.14410      9.45400      8.39433         0.086911     -0.397576      1.035384
O       5.47552      1.88149      0.19947         0.368075      0.030979     -1.088651
O       5.61307      1.74597     12.56127         0.076801      0.401320     -0.655266
O       5.68519     13.00934      0.21899        -0.151062     -0.084294      0.293507
O       5.64489     12.98040     12.56595        -0.197044      0.510987     -0.213260
O       5.54883      1.76302      4.19062         0.150826      0.585382      0.445843
O       5.47035     13.10406      4.29814         0.807932      0.034018      0.120434
O       5.53130      1.88500      8.54579         0.070549      0.040440     -0.439814
O       5.64159     13.08576      8.33185        -0.300226      0.268452      0.190339
O       5.52218      5.71774      0.15871         0.380126     -0.523946      0.224709
O       5.68407      5.68875     12.47309        -0.371994     -0.337803     -0.142794
O       5.74295      5.60638      4.27269        -0.264408      0.366427      0.041200
O       5.64324      5.45818      8.45025         0.068670      0.356017      0.348503
O       5.53170      9.32352      0.26473         0.471101      0.471358     -0.537016
O       5.72484      9.35290     12.41398        -0.660136      0.128875      0.341753
O       5.54859      9.30966      4.47656         0.626604      0.298371     -0.538869
O       5.81061      9.37208      8.41977        -0.895773      0.084999     -0.705180
O       9.35767      1.72116      0.11558         0.402331      0.157745      1.226747
O       9.46987      1.90370     12.47247        -0.357955     -0.289285     -0.132803
O       9.33459     13.18898      0.24179         0.329551     -0.251933     -0.777204
O       9.30392     13.13969     12.46879         0.190049     -0.262088     -0.035699
O       9.36718      1.98167      4.28581        -0.014439     -0.135227     -0.027452
O       9.36215     13.16969      4.34440        -0.096992     -0.172096     -0.731732
O       9.22201      1.76294      8.37750        -0.271126      0.860909      0.854521
O       9.41420     13.20507      8.42536        -0.267000     -0.422640     -1.269248
O       9.45846      5.66660      0.20740        -0.383872     -0.033416     -0.331747
O       9.45723      5.58248     12.37199        -0.731871      0.093554      0.372316
O       9.30076      5.63572      4.35771        -0.283644     -0.104001     -0.159546
O       9.25361      5.70816      8.50515         0.468163     -0.790622     -1.213146
O       9.55915      9.45990      0.22887        -0.948874     -0.280208      0.300342
O       9.26872      9.40836     12.47569         0.660301      0.035898      0.632481
O       9.44852      9.28805      4.23514        -0.679210      0.365048      1.095295
O       9.39098      9.40411      8.40595         0.104047     -0.398939     -1.096601
O       3.74409      1.46654      2.25130        -0.214511      0.552205      0.212100
O       3.79483      2.13676     14.53969        -0.632728     -0.115329     -0.050310
O       3.73407     13.44171      2.28579         0.326469     -0.419342     -0.556904
O       3.78972     12.76849     14.67797        -1.323074      0.068020     -0.323242
O       0.06663      2.24490      2.10154        -0.663185     -0.314389      0.923240
O      14.96604      1.51160     14.61381         0.425717      0.304188      0.132958
O      15.00706     12.69778      2.19269         0.576528      0.112407      0.645030
O       0.00940     13.47492     14.27453         1.459777     -0.214544      1.054715
O       3.76751      1.83551      6.48480        -1.720959      0.228038     -0.044044
O       3.75045     13.24570      6.51617        -1.298052     -0.263786     -0.004697
O      14.96805      2.02884      6.39711        -0.366496     -0.313936      0.154269
O      14.98903     13.00221      6.39923         0.193874      0.359561     -0.055371
O       3.64837      1.50009     10.66117        -0.142657      1.064607     -0.762744
O       3.71835     13.27769     10.44577         0.010396      0.175905     -0.330769
O      15.00123      2.06946     10.58010        -2.091529      0.682528      0.015498
O      14.96247     12.81882     10.61188         0.698347      0.272113     -0.657544
O       3.77923      6.01187      2.27673         0.057281     -0.268635      0.015448
O       3.66577      5.34338     14.44167         2.232219      0.046845      0.089747
O      14.97860      5.17345      2.35830         0.297779      1.079783     -1.093410
O      14.97957      5.94000     14.58629        -0.663748     -0.283138      0.148674
O       3.81595      5.72822      6.32361        -1.946974      0.522338      0.312314
O      15.00583      5.61795      6.39217         0.545077     -0.995117     -0.192388
O       3.71878      5.86419     10.38886        -0.548084      0.212912      0.444852
O      14.97728      5.24985     10.35142        -0.387772      0.314872      0.675770
O       3.77237      9.08627      2.30485         0.035682     -0.777239      0.201292
O       3.66225      9.62991     14.69692         1.774538      0.060571     -0.413346
O      15.00929      9.48567      2.27857        -0.357715      0.499495      0.469405
O      15.00106      8.92939     14.55452        -0.485595      0.096067     -0.082625
O       3.67871      9.24173      6.49041         1.646021      0.012603      0.423485
O      14.95298      9.58070      6.38022         1.030935     -0.290932     -0.350851
O       3.75787      9.12581     10.29578         0.490364     -0.294648      0.400085
O      14.96798      9.68621     10.59825         1.428114     -0.595108     -0.715916
O       7.45938      2.06738      2.07421         0.811743      0.456193      0.541846
O       7.49295      1.56404     14.65760         0.771639      0.139523     -0.282586
O       7.55835     12.69722      2.35705        -1.405074      0.450933     -0.155855
O       7.52576     13.28472     14.59442        -0.502829      0.472915      0.164489
O       7.42538      1.99927      6.35202        -0.225881      0.025861      0.226338
O       7.46736     13.05660      6.49550         0.550822     -0.264629     -0.541820
O       7.39505      2.00992     10.51352         0.056626      0.486934      0.268196
O       7.48478     12.86956     10.39793        -0.618247      0.231222      0.055154
O       7.49374      5.29268      2.14882        -0.601014     -0.050344      0.213362
O       7.50140      5.84379     14.59309        -0.126281     -0.174973     -0.458597
O       7.49884      5.47590      6.40581         0.335008     -0.085492      0.414202
O       7.45759      5.14769     10.46255        -1.001269      0.965826      0.040849
O       7.47768      9.81825      2.21998         0.314460     -0.256425      0.303201
O       7.41570      9.13119     14.62783         0.706688      0.238327      0.039457
O       7.57769      9.53906      6.35422        -0.132965     -0.088382     -0.017334
O       7.54862      9.60236     10.38469        -0.423689     -0.428058      0.484107
O      11.24636      1.33661      2.29040        -0.451773      1.247503     -0.745045
O      11.25769      2.06075     14.66591         0.422464      0.460387     -0.063667
O      11.31836     13.55147      2.25545        -0.939905     -0.851866     -0.369907
O      11.32034     12.76235     14.39171        -0.624678     -0.042464      0.447065
O      11.15851      1.78901      6.58288         0.116881      0.324376     -0.454302
O      11.27572     13.29142      6.36389        -0.608866     -0.120767      0.245794
O      11.11529      1.58753     10.18546         1.769483      0.130942      1.111733
O      11.20655     13.34949     10.47838         0.986682     -0.097530      0.014739
O      11.16987      5.82783      2.35239         1.107685      0.074477      0.014594
O      11.18481      5.37593     14.52909         0.508603     -0.267920      0.254593
O      11.28160      5.79975      6.37388        -1.156243     -0.166996      0.263594
O      11.17169      5.93525     10.37794         0.483789     -0.466151      0.434366
O      11.20499      9.04807      2.37228        -0.191154      0.027419     -0.518789
O      11.24667      9.74999     14.52446        -0.090522     -0.154777     -0.573286
O      11.30336      9.09310      6.47049        -1.842648      0.390775     -0.266161
O      11.28417      8.99428     10.43479        -0.309474      0.530647      0.284775
O       2.27793      3.76196      2.12420        -0.027869     -0.637979      0.893605
O       1.67894      3.66873     14.57243        -0.760056      0.896251      0.033685
O       1.56706     14.94462      2.15690        -0.428847      1.058578      0.194951
O       2.32417      0.00959     14.50494        -0.780947     -1.797070      0.519421
O      12.77648      3.68179      2.40292        -0.004396      0.914452     -0.432767
O      13.41188      3.71252     14.53275        -0.382268     -0.233169      0.136344
O      13.58030      0.01258      2.32672        -0.262078     -0.854108     -0.162594
O      12.86827     14.93404     14.62625         0.043610      0.257725      0.030678
O       1.89804      3.75067      6.49284         0.456255      0.688839     -0.810026
O       1.73971      0.03496      6.40699         0.041646     -0.671008      0.501123
O      12.97550      3.77976      6.38500        -0.057528      0.592987      0.154023
O      13.18269      0.07035      6.33108         0.523234     -0.844642      0.194660
O       2.10122      3.82661     10.61532         0.167517     -0.949845     -0.004052
O       1.60017     14.97555     10.40085        -0.149095      0.968886      0.275893
O      12.72314      3.75755     10.54226         0.615839     -0.998494     -0.010885
O      13.58088     14.96677     10.38007        -1.210474      0.867176     -0.025356
O       1.56681      7.40074      2.17903        -0.094017      0.777706      0.378322
O       2.11158      7.43440     14.75031         0.232836      1.232403     -0.482878
O      13.29065      7.46607      2.35789         0.215522     -0.662015     -0.157666
O      12.60839      7.49411     14.50912         0.990709     -0.031506      0.052336
O       1.65429      7.47646      6.47092         0.481397      0.249846     -0.269330
O      13.30314      7.48738      6.58357        -0.172140      1.082173     -0.285075
O       1.48581      7.51291     10.43494         0.866709     -0.099164     -0.032148
O      13.40822      7.48795     10.48507        -0.281166     -0.729222     -0.386085
O       2.21892     11.20434      2.19636        -0.630540     -0.453920      0.457120
O       1.49067     11.23871     14.56069         0.643189      0.197486     -0.063087
O      12.73123     11.17891      2.15610         0.267561      0.162073      0.718640
O      13.64506     11.15906     14.60899        -1.065414      0.787604     -0.487948
O       1.90184     11.27972      6.39515         0.284734     -0.460118      0.025567
O      12.88297     11.25263      6.46939         0.330114      0.400987     -0.302982
O       2.11903     11.22620     10.44073        -0.101961     -0.139644      0.020288
O      12.89224     11.24372     10.38287        -0.562915      0.784638      0.532972
O       5.31404      3.72687      2.25893        -0.123322      0.918915      0.135686
O       5.87152      3.73497     14.52267         0.020847      0.526434     -0.058464
O       5.89262     14.93400      2.17797         0.204322     -0.245584      0.084360
O       5.38571     14.96645     14.59059        -0.050920     -0.749245      0.336816
O       5.40896      3.76954      6.26085         0.631910     -0.944109      0.094526
O       5.44573      0.00249      6.34172         1.364493      0.498654      0.299465
O       5.26788      3.68021     10.64691         0.362851      0.759823     -0.140413
O       5.83247     14.96377     10.52750        -0.221358      0.024078     -0.241938
O       6.06550      7.49470      2.22600        -0.661656     -0.181539      0.402616
O       5.29050      7.52392     14.51807         0.044541     -0.167853     -0.013823
O       5.74506      7.50007      6.49269         0.062359      0.060849      0.088584
O       5.82210      7.42765     10.42445         0.395310      0.091686      0.029793
O       5.15961     11.18842      2.31316         1.138015      0.330168     -0.368463
O       5.86694     11.20789     14.60995        -0.119911      0.113863      0.062900
O       5.43780     11.28871      6.32361         0.127026     -1.553413      0.526909
O       5.47279     11.25021     10.37316        -0.627809     -0.688439      0.445923
O       9.57146      3.71773      1.97365         0.392399     -0.776222      1.031032
O       9.10951      3.74056     14.46978         0.018298      0.376906      0.213257
O       8.93169     14.95182      2.28674         0.663457      0.582059      0.022890
O       9.78058     14.99485     14.44371        -0.654144     -0.540750      0.340437
O       9.51909      3.80861      6.45197        -0.084173     -0.062793      0.366745
O       9.19521     14.97712      6.43783        -0.034080      1.071480     -0.415473
O       9.50285      3.76035     10.46369         0.923414     -1.031880     -0.128025
O       9.06935     14.97875     10.42628        -0.221891      0.895418      0.388202
O       8.91443      7.54052      2.08834         0.473360     -0.215688      0.720483
O       9.50235      7.54983     14.47695         0.515104     -0.625637      0.179797
O       9.26912      7.48236      6.48120        -0.430319      1.024051     -0.086256
O       9.06366      7.50120     10.50426        -0.096716     -0.105986      0.029194
O       9.67022     11.30304      2.33017         0.279670     -0.994553     -0.050318
O       9.10606     11.31169     14.50179        -0.107499     -1.349841      0.469947
O       9.57503     11.26460      6.44187        -0.247445     -0.868555     -0.202691
O       9.53109     11.23828     10.40243         0.561504      0.307888      0.365624
