  # total energy = -7883.34450848 
CRSYTAL
PRIMVEC
    15.6000000000000000    0.0000000000000000    0.0000000000000000
     0.0000000000000000   15.6000000000000000    0.0000000000000000
     0.0000000000000000    0.0000000000000000    17.640000000000000
PRESSURE
-3.98211 -4.00683 -2.54606 0.046872 -0.242313 -0.026878
PRIMCOORD
320 1
Pb       3.78805      3.77001      4.37943         0.388387      0.458835      0.118283
Pb       3.88520      3.91203     17.58147        -0.000648     -0.256456      0.248309
Pb       3.88122     15.56656      4.31500         0.251650     -0.433900      0.438510
Pb       3.82868     15.55144     17.53032         0.180659      0.396840      0.383559
Pb       0.04108      3.87746      4.39138        -0.436096     -0.071657     -0.334412
Pb      15.58865      3.93347     17.62447        -0.146108      0.059434      0.041024
Pb      15.54399     15.54141      4.30697        -0.124735      0.170437      0.354685
Pb      15.49570      0.03460     17.53874         0.292172     -0.399128      0.805711
Pb       3.84047      3.93309      8.78293        -0.184132     -0.238630     -0.165729
Pb       3.83367      0.04155      8.71682         0.161619     -0.241693      0.384618
Pb      15.57300      3.90797      8.69091        -0.035397     -0.070573      0.217208
Pb       0.01224     15.59581      8.75294        -0.136174     -0.074510     -0.030349
Pb       3.90909      3.68284     13.21990        -0.442208      0.929113     -0.018286
Pb       3.82094     15.53994     13.17193         0.268018      0.027527     -0.358307
Pb      15.57667      3.78421     13.16032         0.320649      0.408472      0.225828
Pb      15.58834      0.10060     13.13748        -0.127163     -0.393405      0.017873
Pb       3.88343      7.82748      4.39699        -0.137195     -0.301977     -0.056026
Pb       3.95354      7.81112     17.57461        -0.677842     -0.045897      0.522928
Pb       0.01576      7.96320      4.40550        -0.048287     -0.930312     -0.010159
Pb       0.02780      7.84539     17.53856        -0.159877     -0.170900      0.375061
Pb       3.89656      7.88503      8.82648         0.462298     -0.375004     -0.164879
Pb      15.57240      7.80427      8.81934        -0.223877     -0.027585      0.040953
Pb       3.89161      7.80138     13.12333         0.581520     -0.570438      0.136577
Pb       0.04912      7.87714     13.16712        -0.430303     -0.381876      0.584711
Pb       3.90357     11.63688      4.36146        -0.173134      0.347080      0.049775
Pb       3.93005     11.63667     17.55784        -0.316149      0.094754      0.305930
Pb      15.50520     11.53301      4.26591         1.040519      1.422307      1.394178
Pb      15.55579     11.63167     17.50320         0.077436      0.314245      0.783243
Pb       3.84414     11.58145      8.72824        -0.030261      0.530918      0.197274
Pb      15.53565     11.74115      8.80322         0.195894     -0.031454     -0.333083
Pb       3.85902     11.73601     13.15563        -0.277382      0.101600     -0.010167
Pb      15.52822     11.62640     13.16438        -0.033444      0.351548     -0.130481
Pb       7.85704      3.72138      4.45847        -0.225622      0.489916     -0.103507
Pb       7.78863      3.83424     17.55040        -0.119140      0.440439      0.484756
Pb       7.72351     15.49580      4.30801         0.120503      0.165930      0.625887
Pb       7.77051     15.57503     17.63094        -0.147951      0.082631     -0.279914
Pb       7.72481      3.90000      8.73726        -0.262015     -0.110420      0.010037
Pb       7.81091     15.58423      8.68861         0.130943      0.055219      0.464832
Pb       7.98433      3.93896     13.09083        -0.538706      0.185182      0.962816
Pb       7.79221      0.02934     13.22587        -0.082671     -0.274972     -0.282576
Pb       7.90924      7.77828      4.36913        -0.368190     -0.244592     -0.322157
Pb       7.80622      7.89502     17.62050        -0.013833     -0.794897      0.223539
Pb       7.76415      7.81567      8.73862        -0.666266     -0.040937      0.155636
Pb       7.77821      7.90791     13.06556        -0.317927     -0.777258      1.748854
Pb       7.84326     11.70938      4.38551        -0.100101     -0.004795      0.102043
Pb       7.78263     11.69817      0.01411        -0.131479      0.147618     -0.154886
Pb       7.83239     11.69893      8.91218        -0.036452      0.078377     -0.475723
Pb       7.79244     11.74740     13.18439         0.135686     -0.040714      0.272401
Pb      11.65014      3.88123      4.42422         0.212515     -0.039227     -0.398197
Pb      11.85124      3.84209     17.58359        -1.139064      0.094948      0.419164
Pb      11.54939     15.46325      4.39916         0.539312      0.008809      0.185912
Pb      11.52738     15.50572     17.60211         0.448958      0.391956      0.274856
Pb      11.56535      3.89787      8.75864         0.456749      0.077498      0.300007
Pb      11.78754      0.05641      8.70293        -0.462209     -0.630746      0.111569
Pb      11.77694      3.90327     13.19625        -0.289639      0.380667     -0.179863
Pb      11.68983     15.57273     13.15768         0.053626     -0.161076      0.429501
Pb      11.75093      7.72576      4.27391        -0.059575     -0.168378      0.352890
Pb      11.73311      7.73627     17.51508        -0.766906     -0.119982      0.428820
Pb      11.59641      7.78817      8.69132         0.406658      0.162328      0.703270
Pb      11.74714      7.74522     13.20198        -0.560369     -0.436069      0.748483
Pb      11.70076     11.66597      4.24321        -0.729628      0.031074      1.217052
Pb      11.80092     11.56979     17.45083        -0.444680      0.649295      1.212063
Pb      11.72108     11.60731      8.60653        -0.140022      0.839103      1.215796
Pb      11.62309     11.61959     13.02145         0.381580      0.401521      0.876940
Ti       1.95657      1.95868      2.38616        -0.628892     -0.574967     -0.743478
Ti       1.83900      2.00182     15.64228         0.587389      0.290305     -0.846833
Ti       1.90998     13.68249      2.33602        -0.090691     -1.122447      0.378747
Ti       1.93397     13.67146     15.61412         0.242111     -0.751505     -0.083977
Ti      13.62137      1.92654      2.39728         0.289895     -0.558941      0.093308
Ti      13.54984      1.88356     15.71772        -0.771789      0.291764     -0.145683
Ti      13.65950     13.56227      2.37254         0.180472      0.594628     -0.647230
Ti      13.64309     13.64377     15.56730        -0.445898     -0.426115     -0.312010
Ti       1.87325      1.95723      6.80280        -0.043760      0.002982      0.045496
Ti       1.92711     13.68676      6.82617         0.323881     -0.478006      0.231377
Ti      13.60319      1.94076      6.77646         0.728518     -0.193361     -0.375845
Ti      13.66387     13.62885      6.71229        -0.423522      0.418522     -0.170648
Ti       1.98379      1.92271     11.12813        -0.651410      0.169554      0.196282
Ti       1.87188     13.60665     11.12764         0.459773      0.385440     -0.013854
Ti      13.58563      1.91686     11.18090         0.004610      0.243243      1.168099
Ti      13.60579     13.62958     11.17549         0.211250      0.205061      0.994095
Ti       1.89932      5.92192      2.26791        -0.323982     -0.263152     -0.636596
Ti       1.86876      5.88128     15.60591         0.293411     -0.447095     -0.494881
Ti      13.61548      5.72570      2.26945         0.138006      0.235327     -0.035618
Ti      13.56065      5.81239     15.62834         0.057762      0.019104     -0.812430
Ti       1.88712      5.96382      6.84073         0.606014     -0.736511     -0.387021
Ti      13.58753      5.85829      6.90262         0.386739     -0.326580     -0.581427
Ti       1.94450      5.81065     11.19800         0.537112     -0.838292      1.110948
Ti      13.70684      5.88258     11.28401        -0.767801     -0.813423     -0.306573
Ti       1.96635      9.74527      2.36396         0.256053      0.343587      0.324647
Ti       1.90742      9.76773     15.56888         0.166932      0.146990      0.526382
Ti      13.58721      9.65533      2.45234         0.159216     -0.043581     -1.391611
Ti      13.58812      9.70795     15.60842         0.303362     -0.090899     -1.083976
Ti       1.91929      9.72800      6.84705         0.397933      0.718931     -0.329328
Ti      13.65787      9.71671      6.80679        -0.357864     -0.110776     -1.066272
Ti       1.93769      9.67382     11.16211        -0.204178      1.021835     -0.190166
Ti      13.59723      9.68915     11.20250         0.275017      0.201047     -0.291351
Ti       5.85283      1.94707      2.44690         0.356692     -0.250820      0.657213
Ti       5.78329      1.98998     15.52980        -0.319950     -0.074870      0.158455
Ti       5.85806     13.55492      2.38831        -0.108878      0.396021     -0.181313
Ti       5.84737     13.69728     15.63388         0.061063     -0.058235      1.263304
Ti       5.81194      1.88225      6.86151        -0.211567      0.010128     -0.414283
Ti       5.87196     13.60243      6.86341        -0.711384      0.233884     -0.850140
Ti       5.90924      1.98064     11.22080        -0.569972     -0.710268     -0.698190
Ti       5.80353     13.66715     11.19088        -0.082556      0.330908      0.803356
Ti       5.75928      5.75982      2.44786         0.711950      0.148236     -1.515239
Ti       5.78341      5.85041     15.70768         0.680822      0.267808     -0.428756
Ti       5.71739      5.79364      6.78461        -0.533314      0.454256      0.447252
Ti       5.88180      5.81126     11.16463        -1.334987      0.850303     -0.580001
Ti       5.84246      9.71555      2.45546         0.169228     -0.056483     -0.173293
Ti       5.83610      9.76237     15.65310        -0.216442     -0.239210      0.011971
Ti       5.89019      9.79850      6.78371        -0.964171     -0.414892     -0.552716
Ti       5.79008      9.80886     11.22456         0.114284     -1.207784     -0.151753
Ti       9.78665      1.94609      2.45366        -0.355626     -0.374917      0.259717
Ti       9.64653      1.91825     15.55111         0.553593      0.267652      0.493994
Ti       9.75865     13.62927      2.30365        -0.142773     -0.390829      0.693571
Ti       9.75762     13.63088     15.63673        -0.427350     -0.052458     -0.361653
Ti       9.72486      2.00135      6.85964        -0.139767     -1.043869     -0.711650
Ti       9.74608     13.60898      6.85140         0.376137      0.562987     -0.697529
Ti       9.74975      1.83084     11.18255         0.152555      1.037690     -0.063921
Ti       9.70191     13.59416     11.14811         0.146431      0.205434     -0.340817
Ti       9.66983      5.77500      2.39023         0.178803     -0.006952     -0.203312
Ti       9.63625      5.79372     15.62332        -0.076872      0.535455     -1.611942
Ti       9.62607      5.92185      6.84484         0.391744     -1.027860     -0.919411
Ti       9.66080      5.88828     11.17669         1.194113     -0.351661      0.098654
Ti       9.68660      9.72180      2.41310         0.307324      0.331030     -0.195993
Ti       9.67550      9.75748     15.66460         0.127890     -0.622072      0.308680
Ti       9.72482      9.76840      6.78547         0.168340      0.485654     -0.378819
Ti       9.72314      9.68332     11.22895        -0.033244      0.062064     -0.662472
O       2.03045      1.93603      0.60630        -0.365145     -0.086817      0.763751
O       1.74762      2.07032     13.82697         0.320327     -0.409813      1.569931
O       1.85152     13.69003      0.58363         0.196106      0.063436      0.457523
O       2.11352     13.61776     13.84553        -0.415180      0.067506      1.073350
O      13.55548      2.07132      0.64390         0.188180     -0.256511     -0.132306
O      13.56026      1.79808     13.97875         0.008052      0.104036      0.017212
O      13.70069     13.34942      0.60071        -0.160196      0.481050      1.153875
O      13.60901     13.64206     13.79207         0.059334     -0.053853      1.174198
O       1.75353      1.83231      5.06464         0.538647      0.431442     -0.141886
O       1.97052     13.64970      5.11307        -0.023577      0.009359     -0.214424
O      13.80922      1.90971      5.05478        -0.692284      0.312778     -0.441206
O      13.63734     13.74818      4.95451        -0.175037     -0.505140      0.752748
O       1.99428      1.86101      9.35812        -0.425418      0.254702      0.199246
O       1.82940     13.73837      9.35426        -0.074307     -0.120291      0.799978
O      13.46522      1.89498      9.47204         0.274603      0.062048     -0.833167
O      13.69990     13.63662      9.45699        -0.016770      0.030300     -0.271252
O       1.88993      5.91250      0.46511        -0.190548     -0.210506      1.584795
O       1.94377      5.69005     13.82627         0.006945      0.684674      1.384461
O      13.51344      5.68702      0.48142         0.448076      0.191070      0.710773
O      13.43985      5.89642     13.84725         0.518705     -0.398914      0.772398
O       1.90108      6.04564      5.08865        -0.036386     -0.256057      0.109273
O      13.67065      5.79113      5.17001        -0.299852      0.156584      0.305275
O       1.93922      5.86193      9.47100        -0.244612     -0.020458     -0.180492
O      13.71491      5.92352      9.52460        -0.041087     -0.059743     -0.056850
O       1.87080      9.72978      0.64414         0.045326     -0.033216     -0.683695
O       1.85256      9.80445     13.81479         0.109603     -0.021893     -0.082223
O      13.61602      9.78830      0.65057        -0.033350     -0.191837      1.185366
O      13.59795      9.73234     13.83048         0.184823     -0.020551      0.686080
O       1.92292      9.66815      5.08029         0.029289     -0.180343      0.283667
O      13.53931      9.62953      5.00682         0.698664      0.025352      0.724423
O       2.00326      9.58747      9.39898        -0.308082      0.351251      0.758909
O      13.62725      9.67298      9.44058        -0.082061     -0.126826      0.487901
O       5.79834      2.02781      0.74800         0.128090     -0.153569     -1.100030
O       5.70249      2.00656     13.76610         0.328382     -0.317703      0.063592
O       5.96201     13.56096      0.62431        -0.199826      0.082120      0.340514
O       5.79354     13.73639     13.92114         0.021647     -0.197550     -0.832252
O       5.79454      1.75907      5.12973         0.132534      0.448204     -0.536042
O       5.88863     13.62966      5.09210        -0.009431      0.016376      0.406194
O       5.90576      1.92115      9.44245        -0.040163      0.312645      0.917572
O       5.84331     13.61823      9.49033         0.229366     -0.132482     -0.979757
O       5.87304      5.68114      0.63381        -0.323037      0.273213      1.738525
O       5.78615      5.92521     13.97552        -0.176302      0.008760      0.226686
O       5.53496      5.71919      5.06252         0.405589      0.354323     -0.110061
O       5.81821      6.00799      9.37262         0.354169     -0.793026      1.139492
O       5.90261      9.79313      0.70771        -0.276119      0.128619     -0.120211
O       5.84619      9.62592     13.92725        -0.129032      0.350928     -0.378431
O       5.81556      9.90804      5.01474         0.145645     -0.540088      0.359294
O       5.81063      9.71834      9.46624         0.113254      0.355797      0.511840
O       9.64330      1.88945      0.74164         0.038490     -0.114178     -0.569695
O       9.76304      1.87257     13.80176        -0.365007      0.065518      0.240668
O       9.68427     13.72981      0.54422        -0.044638     -0.003466      0.554329
O       9.71687     13.62025     13.86359        -0.088911      0.060253      0.605916
O       9.80380      2.09273      5.09169         0.010673     -0.123556      0.345048
O       9.80766     13.60721      5.08074        -0.143800     -0.047167      0.452499
O       9.74457      1.87708      9.42353         0.063868      0.158789      0.042724
O       9.65048     13.46537      9.37446         0.016601      0.442896      1.094142
O       9.57870      5.70231      0.65549         0.258188      0.208392      0.265036
O       9.56006      5.79794     13.78373         0.426611     -0.192453      1.646760
O       9.75373      5.84300      5.07442        -0.162407      0.071677      0.607589
O       9.57508      5.96591      9.38521         0.172570     -0.055776      0.833534
O       9.67587      9.68077      0.67774         0.019374      0.108303     -0.401317
O       9.67926      9.73952     13.95486         0.011210      0.449381     -0.838922
O       9.80770      9.84699      5.04248        -0.439588     -0.506048      0.190592
O       9.62772      9.66924      9.45075         0.268936      0.001969      0.723611
O       3.91798      1.88729      2.89686        -0.584186     -0.025024     -0.157105
O       3.80040      2.06880     15.93340         0.078885     -0.105797     -0.020020
O       3.98480     13.62034      2.76729        -0.949940      0.209707     -0.139303
O       3.88162     13.54774     16.20408        -0.295406      0.594749     -0.776224
O       0.02128      1.90518      2.79341         0.024285      0.042104     -0.246841
O      15.40127      1.99061     16.14737         1.513539     -0.480917     -0.242611
O      15.59968     13.54141      2.87599        -0.033136     -0.181949     -0.661281
O      15.53859     13.58246     16.02472         0.787079      0.459578     -0.547778
O       3.82722      1.90161      7.16787        -0.108364     -0.083330      0.091200
O       3.90620     13.80222      7.22309        -0.405451     -0.586661     -0.015243
O      15.46742      1.95648      7.20172         0.928104     -0.017444      0.684298
O      15.55314     13.59410      7.23915        -0.333113      0.026574     -0.117017
O       3.78291      1.94116     11.63062         1.475975     -0.193333     -0.105796
O       3.91559     13.63284     11.59817        -0.705152     -0.020635      0.201693
O      15.49040      1.92402     11.66110         0.486986     -0.038811     -0.563176
O      15.59073     13.60330     11.69261        -0.068861      0.167854     -0.491339
O       3.79499      5.82841      2.70564         0.525972     -0.164772      0.135188
O       3.82947      5.80685     16.17108         0.072185      0.409771     -0.698157
O      15.47207      5.75528      2.65140         1.365968     -0.096337      0.055562
O      15.55984      5.91057     16.00500        -0.243930     -0.431731     -0.132335
O       3.78693      5.77768      7.33917         0.626569      0.393473     -0.315408
O       0.00586      5.88590      7.32888        -0.443023      0.090826     -0.099529
O       3.91793      5.88188     11.58189        -0.348127      0.166912     -0.010934
O       0.01311      5.73227     11.71283        -0.009043      0.749864     -0.378930
O       3.85516      9.68730      2.85769         0.674149     -0.006095     -0.182466
O       3.80149      9.69743     16.05504         0.704280      0.410693     -0.193925
O       0.08530      9.78124      2.91705        -1.425224     -0.917238     -0.812190
O      15.54349      9.73214     16.04274        -0.088745     -0.170421     -0.423842
O       3.88759      9.76389      7.24763        -0.320173      0.311235     -0.077995
O      15.53862      9.76942      7.24279         0.286535     -0.344078     -0.136135
O       3.85289      9.78518     11.62729        -0.041662     -0.490119     -0.105059
O      15.58189      9.78285     11.61378         0.068705     -0.437926     -0.138680
O       7.85000      1.95600      2.95370        -0.419465     -0.344710     -0.263051
O       7.67030      1.83553     15.91324         0.716340      0.035028      0.081163
O       7.80957     13.54140      2.85556         0.441109      0.292663     -0.393250
O       7.76284     13.74115     16.07854        -0.083062      0.026464     -0.304861
O       7.79810      1.95910      7.21272         0.004461      0.302235      0.137590
O       7.77972     13.57298      7.21876         0.198722     -0.049616      0.317128
O       7.77583      1.89832     11.66434         0.073509     -0.064334     -0.255014
O       7.79683     13.58039     11.62901        -0.123313      0.388888      0.016033
O       7.82911      5.73505      2.88218        -0.777091      0.646655      0.314297
O       7.77639      5.93140     16.09694        -0.245190     -0.306194     -0.071852
O       7.67786      5.87727      7.17252         0.027142     -0.130472     -0.179323
O       7.74883      5.90172     11.67404         0.227064     -0.159573     -0.693404
O       7.79831      9.79567      2.84714        -0.196304     -0.303429      0.206142
O       7.72689      9.66539     16.11425         0.550109      0.658747     -0.275049
O       7.77245      9.81385      7.21253         0.299926     -0.260629     -0.131697
O       7.87046      9.76008     11.68002        -1.017577      0.395792     -0.431582
O      11.75048      1.94596      2.85014        -0.698418     -0.169693      0.205566
O      11.57033      1.94118     16.16008         0.285180     -0.292569     -0.527650
O      11.64434     13.59646      2.81428         0.409403      0.182884     -0.461736
O      11.69031     13.60827     16.07697        -0.126978      0.063496     -0.410558
O      11.67186      1.87881      7.24038        -0.265196      0.847077     -0.100905
O      11.66905     13.66257      7.24864         0.525085     -0.373916     -0.179509
O      11.65457      1.86626     11.70653         0.056031      0.646425     -0.479728
O      11.68629     13.66981     11.59007        -0.308930     -0.501263     -0.329064
O      11.67451      5.88806      2.68178         0.040159     -0.539443      0.492917
O      11.65423      5.74848     16.02057        -0.608146      0.406519      0.010667
O      11.59011      5.86392      7.31805         0.572440     -0.123518     -0.256519
O      11.68676      5.88124     11.64745        -0.581649     -0.416214     -0.360577
O      11.74345      9.63997      2.87143        -0.248813      0.289747     -0.510705
O      11.63200      9.70766     16.08000         0.380425      0.232315     -0.412377
O      11.67195      9.78983      7.22545        -0.126338     -1.145709     -0.210307
O      11.65656      9.63888     11.70097         0.077907      0.623764     -0.707068
O       1.94830      3.80632      2.83266        -0.063161      0.802208     -0.221436
O       1.82944      3.84922     16.16355        -0.065304      0.625325     -0.592530
O       1.88116     15.49984      2.89798         0.582015      0.468753     -0.734982
O       1.99435      0.04250     16.03257        -0.691291     -0.616508     -0.392063
O      13.66563      3.79988      2.86103        -0.336248      1.087625     -0.057416
O      13.51928      3.88396     15.98998         0.617444     -0.207763     -0.186638
O      13.69299     15.50194      2.65352        -0.190868      0.135153     -0.010921
O      13.59741     15.51307     16.23007        -0.252798      0.233680     -0.848431
O       1.87275      3.91242      7.13048        -0.094105     -0.244295      0.274801
O       1.79202      0.01375      7.23779         0.278002     -0.070553     -0.063345
O      13.63116      3.89052      7.24605        -0.468360      0.398498      0.232534
O      13.59084     15.55678      7.11353         0.162103     -0.007306      0.481555
O       1.99321      3.82338     11.61257        -0.601729      0.733548     -0.437306
O       1.93385      0.03635     11.63439        -0.297388     -0.756599     -0.081826
O      13.64319      3.87987     11.73688        -0.563710     -0.250535     -0.539190
O      13.59551     15.58505     11.73159         0.317135     -0.244996     -0.801688
O       1.89359      7.74433      2.73625        -0.179376      0.060676      0.146123
O       1.84586      7.84358     16.05824         0.472374     -0.475695     -0.729665
O      13.69982      7.70886      2.78897        -0.123740      0.620772     -0.188871
O      13.53140      7.78146     16.06742         0.418265      0.078585     -0.300590
O       2.02286      7.85554      7.27934        -0.687875     -0.550095     -0.013219
O      13.66448      7.79732      7.25579        -0.400992      0.008422      0.074140
O       1.82494      7.82308     11.70305         0.661438     -0.424170     -0.673298
O      13.58664      7.74755     11.78825         1.008842      0.765634     -0.812878
O       1.97884     11.62066      2.84218         0.077812      0.878005     -0.344879
O       1.95446     11.67015     16.10270        -0.224470      0.376984     -0.632279
O      13.58956     11.65636      2.99199         0.422096     -0.467529     -1.256808
O      13.63788     11.62821     15.99365        -0.199636      0.307232     -0.334223
O       1.91994     11.64916      7.31192         0.004035      0.484717     -0.156246
O      13.58060     11.64008      7.19729         0.408913      0.507382     -0.274760
O       1.99217     11.74486     11.44364        -0.321060     -0.703770      0.352638
O      13.66144     11.58504     11.60367        -0.498493      0.775081     -0.092849
O       5.85350      3.86006      2.90542        -0.415308      0.306914      0.192258
O       5.87423      3.91310     16.05616        -0.307906     -0.316190     -0.250550
O       5.93954      0.00530      2.81777        -0.250533     -0.691591     -0.235982
O       5.68534      0.07787     16.01536         0.101497     -0.586944      0.036514
O       5.70457      3.82620      7.25645         0.606968      0.899837     -0.006272
O       5.91310      0.02613      7.32558        -0.191025     -0.712953     -0.121546
O       5.80777      3.90887     11.61412         0.258489     -0.153207     -0.425913
O       5.75680     15.56878     11.59166         0.513123      0.525109      0.290616
O       5.86368      7.77945      2.75113         0.033630     -0.472350      0.543081
O       5.78830      7.86788     16.21648         0.059441     -0.644380     -0.482440
O       5.64724      7.88680      7.13686         0.852895     -0.855269     -0.167588
O       5.84177      7.81891     11.64513        -0.165670      0.214200     -0.139214
O       5.82862     11.66196      2.94283         0.089572      0.165893     -0.639324
O       5.90499     11.72903     16.02234        -0.346038     -0.461913     -0.012888
O       5.75108     11.70588      7.28677         0.272927      0.083371     -0.030300
O       5.78444     11.63305     11.72757         0.535201      0.603057     -0.245604
O       9.69427      3.82175      2.90419         0.774221      0.840999     -0.072743
O       9.56444      3.84619     15.95529         0.230408     -0.106789     -0.213829
O       9.79355     15.53841      2.90613        -0.497099     -0.043227     -0.669941
O       9.73123      0.00781     16.08020        -0.184282     -0.234003     -0.220731
O       9.67586      3.91836      7.31359         0.176901      0.090713     -0.137764
O       9.72340     15.58468      7.16348        -0.115307      0.101608      0.199865
O       9.64397      3.93121     11.52950         0.509193     -0.094963     -0.307735
O       9.76179      0.01532     11.61829        -0.584846     -1.215118     -0.202039
O       9.71356      7.85674      2.85393        -0.185783     -1.211624      0.149622
O       9.74168      7.78215     16.02751         0.042264     -0.043761      0.211671
O       9.68310      7.77855      7.20542        -0.093921      0.887623     -0.192220
O       9.76263      7.79125     11.76385        -0.360629      0.090897     -1.072613
O       9.79891     11.64929      2.74647        -0.114224      0.573900     -0.083070
O       9.63734     11.74796     16.10014         0.168625     -0.593066     -0.346255
O       9.79692     11.65962      7.26803        -0.638815     -0.163578     -0.158607
O       9.68052     11.71689     11.65711         0.478868     -0.512100     -0.299168
