  # total energy = -7878.31082538 
CRSYTAL
PRIMVEC
    15.2000000000000000    0.0000000000000000    0.0000000000000000
     0.0000000000000000   15.2000000000000000    0.0000000000000000
     0.0000000000000000    0.0000000000000000    17.000000000000000
PRESSURE
7.73442 7.59272 1.50603 0.051878 0.066899 0.085522
PRIMCOORD
320 1
Pb       3.68109      3.93272      4.33590         0.127623     -0.480684     -0.663165
Pb       3.82945      3.92113      0.06246         0.025436     -0.736142     -0.339436
Pb       3.70326      0.12147      4.38892        -0.067541      0.117012     -0.782218
Pb       4.01091     15.17276      0.05754        -1.125765      0.293807      0.053281
Pb      15.17723      4.12384      4.33946        -0.040205     -1.117002     -0.252119
Pb      15.14586      3.75662     16.95694         0.064556      0.042207      0.000191
Pb       0.08223      0.17728      4.21029        -0.604494     -0.491560      0.095060
Pb       0.07415     15.15465     16.90021         0.117485     -0.042786      0.529030
Pb       3.99438      3.58086      8.50275        -0.589030      0.625186     -0.322765
Pb       3.81017     15.09659      8.51249        -0.198153      0.135113     -0.266661
Pb      15.13431      3.76770      8.44853         0.402653     -0.233161     -0.272064
Pb       0.01259     15.13326      8.71679        -0.246720      0.170287     -0.899621
Pb       3.77803      3.77891     12.76137         0.184801      0.193651     -0.349611
Pb       3.80576     15.06463     12.79103         0.508134      0.272439     -0.674505
Pb       0.13450      3.58748     12.79243        -0.298129      0.671550     -0.277399
Pb       0.03615     15.08522     12.73728        -0.402089      0.264812     -0.471547
Pb       3.72433      7.58096      4.30555        -0.055908      0.431162      0.210513
Pb       3.88960      7.67785      0.26593        -0.252426      0.104729     -1.017696
Pb      15.13867      7.61795      4.13324         0.378293      0.217397      0.608059
Pb       0.12855      7.58955     16.92394        -0.720348      0.019810      0.378573
Pb       3.77932      7.53411      8.43334        -0.211012      0.240195      0.308359
Pb      15.00455      7.52039      8.48305         1.130304      0.672915     -0.231009
Pb       3.68372      7.52091     12.72976         0.207629     -0.251251     -0.388421
Pb      15.09803      7.46370     12.72300         0.402185      0.074622     -0.414140
Pb       3.55900     11.61534      4.29143         0.488698     -0.973785      0.519005
Pb       3.96161     11.39953      0.09620        -0.624133     -0.119626     -0.062091
Pb      14.95310     11.55470      4.30313         1.107666     -0.057710     -0.146894
Pb       0.05941     11.45622     16.94057        -0.301926     -0.201095      0.046622
Pb       3.81554     11.43827      8.43450        -0.540110      0.023315      0.303510
Pb      15.02804     11.24916      8.62442         0.420844      0.257191     -0.056681
Pb       3.61724     11.20778     12.86218         0.727009      0.334446     -0.588269
Pb      15.12179     11.28072     12.61477        -0.655051      0.102100      0.271745
Pb       7.53190      3.71635      4.11474         0.278665      0.327344      0.079554
Pb       7.65565      3.86394      0.05409        -0.615204     -0.359665     -0.334453
Pb       7.50539     15.19104      4.26040         0.601266      0.003022     -0.225043
Pb       7.58120     15.10176      0.08947         0.265227     -0.058977     -0.460399
Pb       7.81735      3.79294      8.21083        -0.830234     -0.241434      1.043841
Pb       7.52674     15.11619      8.42322         0.220616      0.551578      0.233593
Pb       7.44669      3.71357     12.67861         0.369917      0.506512      0.052841
Pb       7.62370      0.18302     12.67283        -0.139286     -0.950147      0.110574
Pb       7.67219      7.52087      4.41628        -0.211152      0.284316     -0.388941
Pb       7.50769      7.60504     16.96736        -0.233280     -0.359093      0.165104
Pb       7.63592      7.62271      8.43715        -0.220100     -0.053073     -0.555792
Pb       7.59235      7.57886     12.79526        -0.033279     -0.569726     -0.434678
Pb       7.52339     11.25183      4.12085         0.207779      0.305670      1.183614
Pb       7.70140     11.43462      0.03417        -0.281373      0.292237     -0.304016
Pb       7.44336     11.46841      8.32416         0.750618     -0.526838      0.135011
Pb       7.49780     11.30466     12.70525         0.342574      0.734636     -0.082445
Pb      11.45053      3.85352      4.05309        -0.003851     -0.393218      0.887235
Pb      11.47593      3.82833      0.02227        -0.039135     -0.708947     -0.575184
Pb      11.46496     15.18404      4.26125        -0.064290      0.305060     -0.426906
Pb      11.40175     15.04557     16.94265        -0.363444      0.434607     -0.329160
Pb      11.41697      3.67027      8.42718        -0.256298      0.329070     -0.262149
Pb      11.24230     15.15129      8.58241         0.447841      0.252945     -0.059103
Pb      11.37558      3.74731     12.75344        -0.108674      0.024995     -0.041911
Pb      11.34035      0.07761     12.83728        -0.248921     -0.445228     -0.578671
Pb      11.53995      7.57423      4.11470        -0.867413     -0.017035      0.416170
Pb      11.30480      7.54306     16.92736         0.548450      0.146673      0.074928
Pb      11.38875      7.59033      8.34290        -0.563173     -0.244202      0.514116
Pb      11.26615      7.48320     12.60403         0.421918      0.494092      0.515814
Pb      11.46928     11.40904      4.21424        -0.980327     -0.011943      0.072263
Pb      11.47204     11.35388     16.91993        -0.325110      0.306734     -0.009799
Pb      11.31032     11.45521      8.66512         0.047084     -0.193616     -0.576999
Pb      11.31562     11.19397     12.87729         0.156384      0.342491     -0.676466
Ti       1.84746      1.97691      2.22251         0.667236     -0.144717      0.234143
Ti       1.94301      1.85587     15.09267         0.596409      0.480056      0.243267
Ti       1.84790     13.31104      2.35161        -0.815041      0.746916     -1.864345
Ti       1.89869     13.20668     14.88092         0.417237      0.649741      1.128011
Ti      13.29913      1.91049      2.17162         0.547234     -0.849660      0.271477
Ti      13.31089      1.84790     14.93425        -1.266184      0.666486     -0.069543
Ti      13.22706     13.31452      2.13881         1.608062      0.471171      0.469239
Ti      13.31048     13.30584     14.88790        -0.637170     -1.391604     -1.227402
Ti       1.80370      1.88363      6.49870         0.600152      0.293633     -0.020524
Ti       1.75907     13.30484      6.65217         1.304801      0.394503     -1.092598
Ti      13.28382      1.87327      6.43990        -0.029071     -0.074480     -0.301205
Ti      13.26260     13.36722      6.51680         0.453522      0.276820      0.494250
Ti       1.90653      1.94598     10.62629         0.175759     -0.673369      0.071908
Ti       1.96385     13.28862     10.80873        -0.108454     -0.468148     -1.335767
Ti      13.26178      1.92563     10.68210         0.078180     -0.913734     -0.329765
Ti      13.22040     13.31367     10.77179        -0.290091     -0.255352      1.633741
Ti       1.90829      5.76838      2.20542        -0.019029     -0.003035     -0.110069
Ti       1.91808      5.64986     15.03992        -0.084240     -0.368311     -0.930673
Ti      13.30411      5.69832      2.08459         0.929820     -0.489724     -0.785904
Ti      13.29901      5.67457     14.91226         0.320749     -0.038773      0.510181
Ti       1.96286      5.65767      6.57129        -0.641184      0.170853     -0.096992
Ti      13.31265      5.69810      6.56336        -0.415249     -0.293201     -1.504692
Ti       1.95136      5.66121     10.62801        -0.266919      0.304458     -0.382843
Ti      13.32684      5.65326     10.64580         0.024325     -0.188227      0.940948
Ti       1.79403      9.53003      2.33280         0.410670     -0.144123     -0.226127
Ti       1.83067      9.43697     15.02221         0.619112     -0.086777      0.152884
Ti      13.21799      9.49747      2.20463         0.450164      0.528472     -1.196163
Ti      13.20493      9.43221     15.02616         1.320649      0.646874     -1.272222
Ti       1.76683      9.52396      6.54553         0.268505     -1.206355      0.063151
Ti      13.18617      9.56947      6.48934         0.327848      0.185968     -0.218966
Ti       1.85397      9.47953     10.74459         0.058912     -0.980702     -1.864890
Ti      13.17503      9.42458     10.68775         0.559727      0.420433     -0.071367
Ti       5.68153      1.90329      2.27746         0.083447      0.158300      0.054537
Ti       5.75091      1.90951     15.05502        -0.408940     -0.238251      0.831515
Ti       5.63337     13.30552      2.33292         0.408572     -0.053445      0.443792
Ti       5.64182     13.23133     14.99535         1.252374      0.248790     -1.567697
Ti       5.70468      1.87801      6.35932        -0.108799     -0.320836     -0.486669
Ti       5.69077     13.34390      6.39130        -0.854452     -0.471545      0.423744
Ti       5.64367      1.84736     10.62226         0.665716      0.238995      0.856202
Ti       5.78172     13.25520     10.62089        -0.747113      0.973385      0.201563
Ti       5.65751      5.71608      2.21743         0.546687     -0.160068      0.400116
Ti       5.64552      5.69471     14.93166         0.609914     -0.119768      0.436117
Ti       5.70260      5.62052      6.40021         0.518994      0.691693      0.062738
Ti       5.76014      5.71537     10.59053        -0.306792     -1.016935      1.253354
Ti       5.56799      9.45914      2.32730         0.070615      0.348454     -0.081945
Ti       5.63926      9.53419     14.98900         0.253936     -1.105367     -0.009785
Ti       5.54858      9.43894      6.50958         1.311920     -0.168855     -0.862285
Ti       5.70442      9.43585     10.73501        -1.476510      0.165119     -0.925988
Ti       9.52969      1.87277      2.08435        -0.409080     -0.010276      0.800636
Ti       9.43313      1.89129     15.09714         0.952437     -0.267538     -0.479824
Ti       9.48234     13.27204      2.33249         0.094128     -0.071750     -0.582004
Ti       9.48988     13.26286     14.82317        -0.749269      0.971405     -0.560867
Ti       9.50595      1.80918      6.38086         0.006347      0.314862      0.498000
Ti       9.53055     13.32556      6.48223        -0.427123     -1.155338     -2.250181
Ti       9.50059      1.91676     10.72986        -1.007650     -1.033333     -0.550582
Ti       9.45859     13.28616     10.69156         0.327478     -0.053662      1.413886
Ti       9.44560      5.69089      2.13971        -0.471088      0.296462      0.344157
Ti       9.47767      5.67630     15.00194        -0.852008     -0.906606     -0.233734
Ti       9.54360      5.70560      6.34656         0.511336      0.267057     -0.449069
Ti       9.52530      5.61458     10.68324        -0.480359      0.075661      0.068040
Ti       9.38494      9.45586      2.20747         0.771942      0.150310      0.376424
Ti       9.40771      9.46877     15.02207         0.143738      0.957153     -1.160380
Ti       9.49454      9.53933      6.49214        -1.441212     -0.205834     -0.464035
Ti       9.36452      9.45167     10.67648         1.409884      0.421261      0.344294
O       1.91081      1.88910      0.44693        -0.349658      0.001144     -0.083411
O       1.84853      1.96787     13.29815         0.282457     -0.256979     -0.198401
O       1.84900     13.29780      0.49545        -0.340084     -0.236495      1.039098
O       1.96501     13.19253     13.09529        -0.006353      0.466061     -0.160582
O      13.20990      1.89955      0.39723         0.436047     -0.032179     -0.127981
O      13.25765      1.93141     13.08531         0.265559     -0.109161      1.119411
O      13.23529     13.26549      0.35145         0.148580     -0.110810     -0.416912
O      13.43370     13.29761     13.07284        -0.845320      0.210796      1.002494
O       1.79591      1.93102      4.68610         0.622078     -0.002503      0.237084
O       1.74853     13.33492      4.78232         0.536351      0.085748      0.389945
O      13.18981      1.87113      4.63711         0.278685     -0.190653      0.582724
O      13.39404     13.42064      4.71405        -0.648391     -0.474920      0.630364
O       1.96630      1.84597      8.84853        -0.332314      0.516713      0.542458
O       2.01744     13.32659      8.95208        -0.664522     -0.123423      0.726924
O      13.33688      1.90453      8.83625        -0.312831      0.097758      1.397068
O      13.27469     13.39192      9.02652        -0.016027     -0.420491     -0.896212
O       1.97943      5.92887      0.40804        -0.166524     -0.736026      0.427797
O       1.92485      5.63056     13.20574        -0.085503     -0.019024      0.440807
O      13.29472      5.61458      0.27193        -0.074060      0.348574      1.402235
O      13.34799      5.72108     13.10050        -0.103211     -0.329362      1.073382
O       1.76646      5.72504      4.74382         0.586029     -0.446376     -0.324307
O      13.21414      5.65608      4.73451         0.494810      0.348808     -0.359254
O       2.07379      5.54906      8.83427        -0.753093      0.307045      0.269260
O      13.25783      5.65731      8.83756         0.137887      0.102318      0.060684
O       1.93819      9.41317      0.53703        -0.131762      0.363743     -0.619920
O       1.89957      9.54332     13.23989        -0.024711     -0.544427     -0.049312
O      13.23369      9.62947      0.41503        -0.057575     -0.298649     -0.293726
O      13.08102      9.49853     13.22348         0.669018     -0.506500     -0.294717
O       1.80932      9.48656      4.78618        -0.350392     -0.051739     -0.330124
O      13.24645      9.67996      4.63628        -0.119457     -0.772555      0.977465
O       1.94423      9.41278      8.92465        -0.376913      0.218306      0.474232
O      13.23353      9.52591      8.85603        -0.243012     -0.465948      0.811338
O       5.75306      1.88308      0.48758        -0.416504     -0.301903     -0.247986
O       5.81027      1.86883     13.28705        -0.298671     -0.005145     -0.713075
O       5.67662     13.33211      0.53801         0.045763     -0.158518     -0.496196
O       5.70073     13.15260     13.17535        -0.337307      0.277906      0.723487
O       5.74538      1.93864      4.50785        -0.006771     -0.302930      1.386615
O       5.51878     13.30636      4.61795         0.432574      0.065812      0.017711
O       5.74087      1.85619      8.87586        -0.100343     -0.013547     -0.796935
O       5.73135     13.41542      8.77949         0.116779     -0.529242      0.823018
O       5.65304      5.72779      0.42903        -0.230511     -0.066682     -0.490520
O       5.66898      5.59619     13.16113         0.051183      0.205174     -0.157091
O       5.68661      5.72025      4.62189        -0.137034     -0.234855     -0.128808
O       5.71064      5.63436      8.84433         0.105630      0.020677     -0.440400
O       5.62665      9.53229      0.47878        -0.182195     -0.358457      1.008562
O       5.80155      9.60350     13.19149        -0.409706     -0.114681     -0.472842
O       5.66724      9.49894      4.73228        -0.497616     -0.252556      0.053305
O       5.62406      9.36149      8.94011         0.385476      0.179109      0.073499
O       9.44918      1.97352      0.30996         0.627200     -0.087832      0.506812
O       9.34722      1.87540     13.26893         0.421429     -0.201203     -0.576348
O       9.48323     13.19390      0.50452         0.140333     -0.266410      0.768550
O       9.55061     13.37647     13.01076        -0.545892     -0.349842      1.090413
O       9.53097      1.75267      4.65294         0.069957     -0.073482     -0.839774
O       9.59826     13.34401      4.62432         0.107514      0.424446      0.915307
O       9.42614      1.95339      8.95750         0.321694      0.015314     -0.874036
O       9.46164     13.30351      8.90090         0.025032     -0.362343     -0.995717
O       9.38388      5.58381      0.32858         0.784812      0.549278      0.572845
O       9.47292      5.74610     13.21943         0.013836      0.073042     -0.016565
O       9.56320      5.93123      4.54430         0.257364     -0.626493      0.569721
O       9.55765      5.49132      8.91546        -0.081424      0.486894     -0.297257
O       9.37775      9.62703      0.42081         0.360674     -0.269772      0.013624
O       9.44163      9.43643     13.13530        -0.261568      0.069243      1.636532
O       9.55061      9.30387      4.74188         0.067555      0.182484     -0.674287
O       9.38283      9.49334      8.89879         0.020437      0.018723      0.000497
O       3.85907      1.85979      2.58626        -1.222224      0.336514      0.145553
O       3.80556      1.98355     15.43213         0.257579     -0.281249     -0.250748
O       3.77336     13.40299      2.52500        -0.609458     -0.507447      0.589894
O       3.76791     13.11450     15.33555        -0.190615      0.659777     -0.075158
O       0.01152      1.93092      2.63310        -0.088510      0.147536     -0.622882
O      15.13857      1.87789     15.38530         0.767725     -0.547075     -0.182687
O      15.16471     13.30745      2.64633         0.116822      0.167418     -0.426427
O      15.18999     13.33146     15.20155         0.752723      0.256950      0.478457
O       3.83338      1.82244      6.68623        -0.287016      0.346313      0.085630
O       3.75774     13.38180      6.87834         0.205371     -0.572735     -0.353102
O      15.16036      1.80505      6.81639        -0.123373      0.878790      0.150554
O      15.19932     13.16886      7.00899        -1.229907      0.332751      0.114942
O       3.78552      1.95225     10.97400        -0.314550     -0.202520      0.405048
O       3.81546     13.20141     10.98657        -0.041011      0.320625      0.590042
O       0.01484      1.91035     10.99329        -0.508648     -0.321153      0.156282
O      15.17276     13.28380     11.16503         0.256993      0.206655     -0.611448
O       3.77299      5.76036      2.53594        -0.554864     -0.475764      0.459627
O       3.80403      5.49308     15.25581        -0.090678      0.128672      0.312651
O       0.03819      5.77033      2.56480        -1.152292     -0.143798     -0.089896
O       0.00704      5.73941     15.37586        -0.752645      0.008033     -0.415071
O       3.84471      5.63682      6.68418        -0.138389     -0.327284      0.138107
O      15.18160      5.62490      6.80070        -0.219197     -0.064818      0.595029
O       3.75225      5.68129     10.97740         1.415216      0.040086      0.593950
O       0.02765      5.71713     10.98239        -0.539296     -0.194005     -0.139310
O       3.69362      9.48358      2.76487         0.658880      0.279442     -0.395680
O       3.83934      9.52739     15.41472        -1.807635     -0.017945     -0.275206
O      15.14558      9.41731      2.44953        -0.237981      0.030613      0.608604
O      15.12218      9.44867     15.27143         1.578508     -0.298374      0.430138
O       3.72044      9.31875      6.82289        -0.117901      0.561800      0.022038
O      15.05521      9.45045      6.95802         0.724302      0.401075     -0.282578
O       3.75903      9.47411     11.14131         0.867299      0.370097      0.276450
O      15.10149      9.44086     10.96523         0.558038      0.053365      0.436274
O       7.65583      1.91690      2.52626         0.000471     -0.170947      0.268495
O       7.63019      1.81551     15.55810        -1.018430     -0.354863     -0.620429
O       7.64025     13.22292      2.72820        -0.676881      0.101104     -0.503321
O       7.58530     13.29733     15.43161        -0.107069     -0.289004     -0.377884
O       7.59854      1.83258      6.69957         0.282929     -0.156036      0.099268
O       7.59376     13.36651      6.64438        -0.638994     -0.452081      0.375382
O       7.54403      1.92318     11.07987         0.252682     -0.255634      0.035376
O       7.58464     13.47812     10.96252        -0.414095     -0.423405      0.183621
O       7.55952      5.71614      2.52613         0.544413      0.350359      0.028664
O       7.56371      5.72455     15.42273        -0.041800      0.184146     -0.472709
O       7.63904      5.70468      6.57255         0.302200     -0.112953      0.639689
O       7.64915      5.77539     11.02117        -0.856295     -0.725125      0.020472
O       7.50919      9.36052      2.74384         0.204174      0.506535     -0.796302
O       7.51971      9.46339     15.52622         0.622746      0.356528     -0.998041
O       7.56341      9.46413      6.70224        -0.204317     -0.118589      0.874388
O       7.56112      9.39609     11.07470        -0.683209     -0.053243      0.248155
O      11.43814      1.96246      2.57699        -1.104163     -0.224428     -0.371813
O      11.39821      2.00023     15.38576         0.320000     -0.349666     -0.443345
O      11.43175     13.27113      2.63938        -0.172998     -0.014709     -0.248613
O      11.34112     13.21656     15.16900         1.164022      0.010440      0.385589
O      11.38363      1.80295      6.81786        -0.135145     -0.133501      0.184603
O      11.37670     13.35034      6.87620         0.829022     -0.042721      0.111003
O      11.34296      1.92641     11.07148         1.265740      0.035091      0.151503
O      11.30380     13.23111     10.99657         1.064258     -0.282162     -0.016732
O      11.50077      5.67465      2.49757        -1.526616      0.056292     -0.343149
O      11.36232      5.59897     15.37303         0.328382      0.489353     -0.363179
O      11.42635      5.65427      6.81549        -0.812718      0.256717      0.203505
O      11.39891      5.64800     11.13579         0.591303      0.083593     -0.379193
O      11.35340      9.50896      2.48467         0.139422     -0.279466      0.254916
O      11.40593      9.54185     15.27478        -2.660352     -0.064308      0.793090
O      11.30031      9.50134      6.96635         1.700095      0.271924     -0.265699
O      11.34198      9.43779     11.03282        -0.842594     -0.013067     -0.092149
O       1.93357      3.89854      2.61148        -0.008878     -0.560463     -0.185794
O       1.82028      3.78456     15.44801        -0.136155     -0.210887      0.070158
O       1.92547      0.09132      2.66589        -0.259914     -0.915456     -0.044788
O       2.02903     15.17207     15.38863        -0.572246     -0.569682     -0.517117
O      13.38250      3.76444      2.47602        -0.238860      1.584220      0.224640
O      13.39197      3.76366     15.35624        -0.405061      0.566081     -0.583616
O      13.38292     15.19222      2.46594        -0.648653     -0.100004      0.083577
O      13.20039     15.15645     15.29767         0.152608      0.560600     -0.122585
O       1.89355      3.75223      6.84510        -0.084799     -0.377790     -0.026056
O       1.81447      0.04463      6.97647         0.121665     -1.198140     -0.373591
O      13.25342      3.78556      6.66527         0.245635     -0.691321      0.861227
O      13.40419     15.18327      6.93574        -0.474027     -0.396025     -0.313640
O       1.92822      3.78855     11.09736        -0.426867     -0.329138      0.043998
O       1.85446      0.00085     11.13507         0.473132      0.011792      0.031171
O      13.32974      3.77659     10.97091        -0.288655      0.327560      0.127288
O      13.08765     15.19687     11.12667         1.026399      0.439949     -0.287018
O       1.89131      7.63156      2.75059        -0.093281     -0.301289     -0.251080
O       1.95365      7.50244     15.34228         0.044042      1.881095     -0.245004
O      13.29122      7.58377      2.44234        -0.058404     -0.145392      0.183454
O      13.17596      7.57645     15.39753         0.198481     -0.892161     -0.254282
O       1.81694      7.47281      6.79985         0.008896      1.371683      0.653778
O      13.25872      7.64349      6.74302        -0.294291     -0.071273      0.292561
O       1.92142      7.58771     11.07368        -0.260999     -0.482953      0.319880
O      13.36463      7.54123     11.13977        -0.837988     -0.045049     -0.713142
O       1.79307     11.39528      2.75828         0.241396      0.661001     -0.481867
O       1.85014     11.37252     15.23838        -0.268331     -0.341701      0.445403
O      13.41562     11.40537      2.49882        -0.747483      0.308966      0.329514
O      13.33006     11.39076     15.11526        -0.082085      0.528674      1.013137
O       1.93196     11.35986      6.81345         0.053345      0.251203      0.365420
O      13.25813     11.45152      6.97076        -0.323852     -0.435870     -0.467413
O       1.80935     11.32268     11.03523         0.208223      1.066166      0.401861
O      13.22400     11.31054     11.06525         0.122107      0.452113     -0.148898
O       5.68928      3.86040      2.57287        -0.111106     -0.863136      0.034478
O       5.76118      3.72879     15.30688         0.241901      0.880009      0.319922
O       5.75416     15.18776      2.68526         0.073604     -0.130183     -0.443698
O       5.64743     15.10496     15.34347        -0.209649      0.602573      0.109958
O       5.78053      3.69888      6.74296        -0.335133      0.912082      0.072119
O       5.64481     15.18109      6.83537         0.526723      0.357549     -0.703584
O       5.68310      3.78854     11.02114        -0.075644      0.205466      0.024613
O       5.58713     15.18848     11.07188        -0.074599      0.147549      0.172289
O       5.47353      7.56522      2.51459         0.618900      1.157458      0.155455
O       5.56730      7.56783     15.20298         0.438455      0.243667      0.417393
O       5.69375      7.49848      6.85917         0.167779      0.562841     -0.163296
O       5.64930      7.54493     11.07898         0.036265      0.465584      0.172498
O       5.57238     11.37994      2.56809         0.414649      0.166827      0.177370
O       5.62555     11.34885     15.38173         0.777395      0.850550      0.305063
O       5.65670     11.39874      6.88316        -0.421562     -0.066632     -0.508388
O       5.78768     11.44029     10.77656         0.275572     -1.425911      0.645299
O       9.39166      3.84240      2.53981         0.888282     -0.435235     -0.074641
O       9.40815      3.77449     15.16042        -0.090775      0.824417      0.588671
O       9.51808     15.19910      2.30100         0.163973     -0.166271      0.626804
O       9.59596     15.12615     15.24301        -0.248818      0.430767      0.556646
O       9.51301      3.78321      6.66537         0.336291     -0.345245     -0.170569
O       9.44547     15.12697      6.89293         0.335569      1.462157      0.010160
O       9.59736      3.72797     11.06171        -0.737100      1.523061      0.598861
O       9.51880     15.19147     10.94561         0.127271      0.639106      0.485323
O       9.46352      7.57956      2.42036         0.509419      0.032347     -0.076061
O       9.40358      7.66062     15.37809         0.664684     -0.932794      0.125364
O       9.52802      7.57401      6.84040        -0.127351     -0.509856      0.388119
O       9.43769      7.52995     11.05685         0.430822      0.564309     -0.185380
O       9.57976     11.27871      2.79454        -0.862231      0.720999     -0.724935
O       9.46830     11.41775     15.26197        -0.365749     -1.237051      0.019421
O       9.48248     11.42321      6.69611         0.008097      0.097824      0.575581
O       9.32095     11.36387     11.10191         0.334682     -0.395700     -0.474921
