  # total energy = -7884.07212895 
CRSYTAL
PRIMVEC
    15.3600000000000000    0.0000000000000000    0.0000000000000000
     0.0000000000000000   15.3600000000000000    0.0000000000000000
     0.0000000000000000    0.0000000000000000    17.440000000000000
PRESSURE
1.52746 1.55509 -2.81271 -0.205195 -0.265135 0.025882
PRIMCOORD
320 1
Pb       3.86288      3.76406      4.27906         0.124807      0.111601      0.723378
Pb       3.73737      3.80575     17.42558         0.639750      0.118989     -0.230483
Pb       3.80100     15.28481      4.30721         0.575801     -0.035544      0.639243
Pb       3.74679     15.25740     17.33971         0.279705      0.106821      0.388845
Pb       0.03682      3.77405      4.25450        -0.209542      0.330431      0.600476
Pb      15.31770      3.81086     17.34003         0.072877     -0.271476      0.408291
Pb       0.00080      0.00714      4.32302         0.135331     -0.469172      0.060487
Pb       0.07917     15.34616     17.36057        -0.279183     -0.500955      0.401160
Pb       3.81275      3.77827      8.72022         0.468838      0.519794      0.364401
Pb       3.83638      0.02714      8.49781         0.078071     -0.341691      1.387298
Pb       0.09834      3.87221      8.72040        -0.396286      0.148055      0.519216
Pb      15.28968     15.30628      8.70065         0.122772      0.226486      0.054237
Pb       3.82195      3.84758     13.07415         0.082746     -0.250622     -0.471702
Pb       3.85323      0.10369     13.00868         0.049416     -0.236413      0.788607
Pb       0.03238      3.84181     13.02190        -0.099327     -0.265179     -0.123806
Pb      15.31935     15.28843     13.08715        -0.128775     -0.101794      0.082876
Pb       3.80416      7.64731      4.35052        -0.179910      0.418442      0.409210
Pb       3.87942      7.61937     17.32758        -0.285736      0.229468      0.692946
Pb      15.27859      7.74300      4.29862         0.472994     -0.370886      0.333648
Pb      15.31767      7.54606     17.43914         0.455053      0.584101      0.080391
Pb       3.72355      7.73597      8.60300         0.609150      0.083336      0.704436
Pb      15.35581      7.71291      8.62848        -0.073572     -0.088303      0.624338
Pb       3.86934      7.64530     12.95864        -0.024567     -0.072197      0.798207
Pb      15.27826      7.60782     13.02715        -0.174603      0.429043      0.146445
Pb       3.93472     11.50290      4.36748        -0.775282     -0.180128      0.162483
Pb       3.70533     11.63373     17.38694         0.131785     -0.699326      0.458347
Pb      15.23409     11.41314      4.42005         0.527148      0.711502     -0.540933
Pb      15.33502     11.52695     17.40162         0.025601     -0.170096     -0.156809
Pb       3.90819     11.46088      8.63896        -0.341917     -0.030017      0.150994
Pb      15.31096     11.57621      8.70343         0.150053     -0.209162     -0.193677
Pb       3.79409     11.47257     13.04283         0.109059      0.312085      0.165872
Pb       0.01082     11.51692     12.96732        -0.303013     -0.066892      0.521113
Pb       7.64674      3.82885      4.26136         0.067076     -0.473535      0.198666
Pb       7.56476      3.76054      0.05934        -0.124364      0.090493     -0.445361
Pb       7.64831     15.23267      4.40211         0.026048      0.233802     -0.168941
Pb       7.76205     15.34068     17.42620        -0.448044      0.061690     -0.093297
Pb       7.66215      3.87586      8.60969        -0.200951     -0.351438      0.290514
Pb       7.64566      0.07496      8.72073        -0.010748      0.083522     -0.234991
Pb       7.70437      3.83940     12.92952        -0.062678     -0.157885      0.928962
Pb       7.60762     15.35010     13.02747        -0.105531      0.465958      0.431147
Pb       7.75024      7.68508      4.36774        -0.073257      0.096560      0.066772
Pb       7.57643      7.75307     17.36476         0.102620     -0.689088      0.519028
Pb       7.77331      7.55222      8.68888        -0.898071      0.622728      0.688572
Pb       7.74282      7.73047     13.06192        -0.412272     -0.194911      0.326599
Pb       7.65054     11.50815      4.32954         0.109405     -0.325515      0.564190
Pb       7.66237     11.42639     17.38350         0.378468      0.219287      0.140217
Pb       7.63307     11.59419      8.64754         0.240464     -0.439399      0.690856
Pb       7.58540     11.45195     12.96150         0.304331     -0.013707      0.337973
Pb      11.44750      3.88784      4.27317         0.199417     -0.178642      0.055167
Pb      11.54565      3.83308     17.41769        -0.048499     -0.238890      0.589416
Pb      11.56049     15.26954      4.43027        -0.263991      0.467135     -0.454239
Pb      11.45665     15.34094      0.09566        -0.039996     -0.189563     -0.527724
Pb      11.45868      3.73143      8.65369         0.167716      0.960682      0.419605
Pb      11.50907      0.09794      8.71753         0.023718     -0.432530     -0.076828
Pb      11.54470      3.78368     12.99143         0.098624      0.315108      0.256334
Pb      11.54812      0.01083     13.05105         0.151750     -0.387220     -0.054468
Pb      11.48860      7.59924      4.35175        -0.456774      0.401721     -0.433914
Pb      11.51391      7.73966     17.36128        -0.170507     -0.340832      0.608276
Pb      11.53308      7.70819      8.65325         0.106035     -0.464116      0.352979
Pb      11.51949      7.59088     13.13353        -0.030407      0.103017     -0.112411
Pb      11.49976     11.56665      4.22226         0.018163     -0.664708      0.599291
Pb      11.47572     11.47160     17.40352        -0.216075      0.143873     -0.077913
Pb      11.57228     11.50687      8.56604        -0.651503      0.011234      0.817957
Pb      11.55687     11.52873     13.08482        -0.230692      0.140009      0.287907
Ti       1.94210      1.89577      2.34104         0.146720     -1.055550     -1.204087
Ti       1.92948      1.89923     15.41451         0.001476     -0.591140     -1.274132
Ti       1.91806     13.41080      2.40896        -0.285422     -1.394454     -1.389930
Ti       1.91897     13.37706     15.39537        -0.788950     -0.059629     -0.686802
Ti      13.41237      1.88410      2.39970        -0.141207      0.210632     -1.250784
Ti      13.46107      1.84326     15.39587         0.080387      0.081879     -1.134818
Ti      13.42945     13.45889      2.34529         0.994407     -0.730435     -1.434255
Ti      13.35062     13.47583     15.51107         0.565603     -1.543798     -1.249363
Ti       1.89776      1.97460      6.82173        -0.012894     -0.642302     -0.262018
Ti       1.85894     13.49242      6.76170         0.904465     -0.597914     -1.397215
Ti      13.44085      1.94547      6.72534        -0.024417     -0.787836     -2.123369
Ti      13.39619     13.43847      6.67598         0.529796     -0.213105     -0.405852
Ti       1.88956      1.78384     11.05907         0.574606      1.711742     -1.147272
Ti       1.93103     13.45519     11.01262        -0.591583     -0.345455      0.596002
Ti      13.49381      1.88997     11.02951        -0.100658      0.034162     -0.080079
Ti      13.39983     13.40792     10.97806        -0.151901      0.599077     -0.324473
Ti       1.92087      5.74105      2.38282        -0.278933      0.484244     -0.854232
Ti       1.98369      5.73834     15.34827        -0.695619     -0.439174     -0.391560
Ti      13.46245      5.78481      2.42726        -0.875471     -0.181524     -1.240605
Ti      13.43901      5.67264     15.49604        -1.015317      0.220510     -1.426344
Ti       1.88279      5.77788      6.77196         0.460843      0.563785     -1.531441
Ti      13.44051      5.68842      6.65387        -0.371009      0.551430     -0.392783
Ti       1.88485      5.76530     11.07548         0.423986     -0.899584     -0.361870
Ti      13.38911      5.77212     11.04007         0.207955     -0.460299     -1.159803
Ti       1.83075      9.53938      2.36945         0.950590      0.919115     -0.821418
Ti       1.86912      9.54279     15.32467        -0.356741      0.159592      0.487017
Ti      13.38802      9.63243      2.32837        -0.738147     -0.043934     -1.983052
Ti      13.39193      9.55256     15.50083         0.343086      0.881878     -1.222485
Ti       1.80240      9.66722      6.63700         1.699689     -0.500700     -0.560978
Ti      13.40444      9.53308      6.71130        -0.197133      0.425873     -0.647370
Ti       1.88230      9.56297     11.04670        -0.462091     -0.489076     -0.667562
Ti      13.35660      9.61076     11.06092         0.550076     -0.498773     -0.585034
Ti       5.75354      1.93853      2.25358         0.727601     -1.262616     -0.212762
Ti       5.73529      1.85071     15.48351         0.678070      0.214502      0.999452
Ti       5.76265     13.39557      2.34905        -0.075703      0.499427     -0.363588
Ti       5.80319     13.42395     15.44457        -0.449966      0.569433     -1.902181
Ti       5.75946      1.88632      6.66156         0.485520      0.367160      0.351299
Ti       5.72728     13.39582      6.75227         0.347228      0.007585     -1.187240
Ti       5.77625      1.97453     10.98565        -0.264683     -0.181785     -0.715050
Ti       5.63207     13.45937     11.06675         1.208251      0.051467     -1.261725
Ti       5.71693      5.81348      2.42323         0.271303     -0.546959     -1.827011
Ti       5.71657      5.71094     15.34582         1.170651     -0.071619     -0.427566
Ti       5.69539      5.72279      6.68639        -0.088074      0.293806     -0.547894
Ti       5.76354      5.78307     11.06838        -0.109563     -0.261409     -1.401854
Ti       5.67418      9.57248      2.37520        -0.188182      0.367907     -0.584326
Ti       5.65112      9.63864     15.44680         0.289654     -0.762949     -1.529088
Ti       5.73695      9.55286      6.68876        -0.490700     -0.354698     -0.883035
Ti       5.66582      9.53468     11.03317         1.215077      0.470064     -0.738070
Ti       9.61258      1.79416      2.31481        -0.592758      0.619523     -0.347951
Ti       9.65390      1.94450     15.48819        -1.691560     -0.706260     -0.950006
Ti       9.58523     13.36557      2.38202         0.230749      0.051778     -1.538172
Ti       9.56914     13.41727     15.38035         0.115508     -0.641713      0.414948
Ti       9.59076      1.93987      6.58511        -0.847500     -0.056991     -0.308930
Ti       9.60130     13.50591      6.75827        -0.744192     -1.239969     -1.374606
Ti       9.65379      1.86711     11.00853        -0.893463      0.720306     -1.158599
Ti       9.51613     13.45149     11.05669         0.758956     -0.930388     -0.936649
Ti       9.53255      5.68740      2.28968         0.718492      0.788983      1.261768
Ti       9.52276      5.69497     15.55034         0.051278     -0.015929     -1.914624
Ti       9.57127      5.78935      6.65188         0.773618     -0.504917     -1.575304
Ti       9.54141      5.70972     11.10334         0.559011      0.772649      0.533742
Ti       9.51568      9.58168      2.32474         0.423975     -0.854402     -1.349754
Ti       9.53404      9.50690     15.40430        -0.121911      1.171285     -0.552158
Ti       9.53427      9.58507      6.80916        -0.351732      0.374490     -1.685297
Ti       9.60601      9.57306     11.11656        -0.611413      0.142071     -0.525050
O       1.96668      1.69799      0.53896        -0.132554      0.807261      0.890279
O       1.98062      1.90783     13.62361        -0.343696     -0.048535      0.446777
O       1.94601     13.42263      0.50860        -0.020442     -0.273259      1.506977
O       1.95729     13.36607     13.63213        -0.195918     -0.161995     -0.421384
O      13.52902      1.90775      0.59883        -0.334263     -0.180254      0.916835
O      13.49383      1.85083     13.56211        -0.246218      0.013039      0.998808
O      13.44346     13.37721      0.53507        -0.120410      0.242581      0.443701
O      13.23944     13.45995     13.68810         0.304134      0.144760      0.576630
O       1.92948      2.00474      5.08866         0.098925     -0.127522     -1.037840
O       1.86520     13.47398      4.99686         0.095133      0.204721     -0.258133
O      13.34161      1.84751      4.83607         0.218134     -0.036656      1.573503
O      13.51447     13.37092      4.86126        -0.401485      0.316007      0.909446
O       1.86440      1.85357      9.22029        -0.013323      0.085172      0.814938
O       1.90154     13.55968      9.27564        -0.270772     -0.407067     -0.375596
O      13.42078      1.84737      9.23129         0.028668      0.027625     -0.144560
O      13.39463     13.49736      9.17122         0.277141     -0.218963      0.481793
O       1.90951      5.68833      0.60527        -0.007913     -0.032462      0.327105
O       2.03046      5.61655     13.54858        -0.472868      0.409515      0.793460
O      13.39930      5.81141      0.61795         0.302940     -0.401564      0.315412
O      13.43873      5.62065     13.69163        -0.094957      0.027745      0.565142
O       1.83936      5.75414      4.96291         0.283575     -0.147705      0.690558
O      13.50694      5.71190      4.85087        -0.284318      0.149140      0.755609
O       1.87348      5.82754      9.30092        -0.196311     -0.230640     -0.071968
O      13.42621      5.74220      9.23790        -0.109757      0.191639      0.758632
O       1.76883      9.56442      0.61205         0.404712      0.022003     -0.061988
O       1.87876      9.56410     13.54099        -0.005291     -0.005539      0.508469
O      13.19177      9.59598      0.44758         0.723357     -0.181156      1.397351
O      13.36034      9.63414     13.71107         0.132793     -0.313166      0.212041
O       1.93163      9.46406      4.86004        -0.794860      0.518801      0.757711
O      13.45623      9.70256      4.95004        -0.008784     -0.200027     -0.384910
O       1.87808      9.42295      9.22421        -0.295636      0.752034      1.460394
O      13.37605      9.51805      9.24819         0.038991      0.151389      0.633167
O       5.69793      1.81716      0.45471        -0.177818      0.581358      1.403455
O       5.73104      1.84757     13.75442         0.082224     -0.111118     -1.458455
O       5.65327     13.29101      0.60080         0.251245      0.264066     -0.282959
O       5.69994     13.47774     13.59719         0.106833      0.045481      0.967673
O       5.78149      1.88660      4.92384         0.086380      0.030249     -0.396005
O       5.74253     13.31446      4.94048         0.311495      0.309241      0.652192
O       5.82328      1.96876      9.18156        -0.152499     -0.052528      0.846312
O       5.72028     13.42348      9.24365         0.140808      0.200892      0.737345
O       5.61595      5.77525      0.59130         0.268863     -0.038191      1.345141
O       5.80302      5.66550     13.54792        -0.469357      0.117772      1.001326
O       5.70619      5.71079      4.87257        -0.076373     -0.026383      0.905449
O       5.79850      5.69841      9.26593         0.051426      0.129401      0.311079
O       5.68335      9.61602      0.57626         0.106568     -0.350722      0.460429
O       5.70806      9.48768     13.64673        -0.260411      0.765322      0.637482
O       5.69790      9.66607      4.86131         0.344673     -0.279866      0.990442
O       5.61969      9.58519      9.25050         0.174116     -0.128742      0.690739
O       9.48712      1.79285      0.49293         0.734079     -0.102243      0.788234
O       9.42626      1.94093     13.69556         0.802704      0.089341      0.459040
O       9.51264     13.30249      0.57847         0.314486      0.447007      0.781113
O       9.68909     13.30210     13.62876        -0.118958      0.592772     -0.259633
O       9.62855      1.83794      4.79126         0.046206      0.202889      0.904935
O       9.52524     13.29531      4.93393         0.634563      0.423709      0.625250
O       9.51833      1.95450      9.16698         0.653236     -0.356384      1.405885
O       9.54721     13.43746      9.22445         0.018811      0.382552      1.237796
O       9.46570      5.73316      0.58206         0.160403     -0.135273     -1.390819
O       9.51938      5.68961     13.70819         0.296148     -0.175360      0.713257
O       9.69016      5.83651      4.81476        -0.399469     -0.097540      1.537526
O       9.66483      5.74236      9.39129        -0.240200      0.016271     -1.598816
O       9.39254      9.55949      0.47165         0.607469      0.049200      1.343071
O       9.46593      9.65224     13.60545         0.273661     -0.517648      0.524492
O       9.39911      9.39773      4.98422         0.640345      0.781545      1.300113
O       9.55964      9.60692      9.34094         0.325609     -0.392896     -0.129414
O       3.92143      1.80792      2.83951        -0.843152      0.426005     -0.572019
O       3.80879      1.85233     15.74360        -0.874423      0.091509      0.541967
O       3.88115     13.49117      2.80000        -0.212197     -0.107827     -0.161331
O       3.78970     13.36269     15.72154         0.763377     -0.143312      0.553517
O       0.05475      1.93886      2.72127         0.076594     -0.417779      0.153340
O      15.32157      1.80569     15.79296         0.889422      0.286521      0.114888
O       0.01620     13.46288      2.73077         0.307111     -0.204028      0.146309
O      15.34550     13.32239     15.77987        -0.234100      0.229910      0.126210
O       3.86606      1.92801      7.17044        -0.412616      0.118923     -0.454898
O       3.84441     13.43738      7.05588        -0.117172      0.051647      0.247781
O      15.32692      2.00926      7.02892        -0.437378     -0.319390      0.316332
O       0.02752     13.44851      7.04433        -1.868601      0.166128      0.706768
O       3.83290      2.01212     11.45769        -0.240441     -0.393841     -0.262171
O       3.82378     13.46949     11.37582        -1.210347     -0.271470      0.333443
O       0.06290      1.83427     11.49661        -0.959922      0.288072     -0.156428
O      15.33237     13.47458     11.46957         0.199867     -0.465958     -0.256366
O       3.83213      5.83529      2.74315        -0.712580     -0.515744      0.248936
O       3.81500      5.63208     15.86753        -0.559236      0.255009     -0.507902
O      15.33984      5.74679      2.75352         0.356666     -0.386066      0.041578
O      15.28487      5.73901     15.87385         0.907336     -0.247794     -0.227120
O       3.83013      5.83136      7.28686        -0.112083     -1.056042     -1.074703
O      15.35130      5.80613      7.17434        -0.590006     -0.570078     -0.312983
O       3.90646      5.77739     11.41297        -1.652079     -0.260141      0.131578
O      15.28121      5.72391     11.46113         0.454693      0.019814      0.164091
O       3.75085      9.50663      2.79116         1.214070     -0.063901     -0.225675
O       3.75017      9.58616     15.81683         0.332708     -0.220495     -0.214074
O      15.33471      9.72510      2.65723        -1.139363     -0.324027      0.657689
O      15.31850      9.49790     15.86365         0.089035     -0.113435     -0.298227
O       3.78758      9.70951      6.96826        -0.176196     -0.418996      0.447602
O      15.30554      9.58470      7.05033         0.151580     -0.035069      0.196983
O       3.79306      9.47979     11.43482        -0.758617      0.352088     -0.040923
O      15.25587      9.50334     11.53912         0.787699      0.187866     -0.460111
O       7.68280      1.95522      2.58114         0.054773      0.146299      0.415487
O       7.61154      1.79794     15.86329         0.468348      0.347425      0.220655
O       7.77353     13.25878      2.78899        -1.407199      0.397232     -0.118101
O       7.68700     13.44248     15.75950        -0.503038     -0.096240      0.079519
O       7.68675      1.94937      7.14229         0.122338     -0.395088     -0.545576
O       7.71054     13.39397      7.01411        -0.787419      0.169927      0.525947
O       7.66861      1.80083     11.34552         0.109477      0.172192      0.216699
O       7.66050     13.54462     11.51225        -0.247863     -0.274715     -0.587234
O       7.69170      5.58781      2.75922        -0.679924      0.663015     -0.148644
O       7.59960      5.74541     15.77002        -0.203718     -0.156664      0.392716
O       7.68539      5.85352      7.07180        -0.438427     -0.346650     -0.244676
O       7.63182      5.87059     11.37348         1.068682     -0.545593      0.369969
O       7.67238      9.64269      2.71048        -0.999247      0.145793      0.118805
O       7.63133      9.41709     15.81802        -0.784830      0.820739     -0.251254
O       7.60770      9.56262      7.17673         0.465233     -0.051517     -0.129873
O       7.65562      9.52366     11.52502        -0.717213      0.261703     -0.482472
O      11.50932      1.78297      2.61668         0.435115      0.056998      0.241857
O      11.54144      1.88750     15.76077        -0.137378     -0.156799      0.274907
O      11.57240     13.36094      2.66731        -0.729335      0.630895      0.525897
O      11.45816     13.40593     15.93889         0.113838      0.290908     -0.083270
O      11.44916      1.96280      7.11860         0.175344     -0.405043     -0.284776
O      11.51540     13.49023      7.01653         0.274097     -0.498040      0.112986
O      11.57115      1.94425     11.40670        -0.988518     -0.465103     -0.141382
O      11.53272     13.39874     11.42545        -0.458884      0.085499     -0.127680
O      11.48504      5.85847      2.65720         0.495453     -0.100263      0.535784
O      11.49536      5.47955     15.84538        -0.189759      0.839836     -0.038780
O      11.53205      5.75282      7.05802        -0.543638     -0.251336     -0.088158
O      11.56775      5.65145     11.48281        -1.016428      0.231014      0.381034
O      11.47327      9.52793      2.73616         0.376461     -0.028836      0.120294
O      11.38506      9.48917     15.73923         0.709109      0.425291      0.320172
O      11.52223      9.58084      7.08763        -0.741892      0.245699      0.080246
O      11.50859      9.59956     11.54197        -0.061609      0.125562     -0.218761
O       1.96430      3.76992      2.69970         0.250526      0.219572      0.064313
O       1.80999      3.79515     15.69699         0.209616      0.184488      0.618126
O       2.02428     15.29589      2.78702        -0.801225      1.135623      0.102586
O       1.91017     15.25711     15.73980        -0.201848      0.947733      0.188687
O      13.37823      3.84771      2.79418         0.113703     -0.289872     -0.312944
O      13.45424      3.69367     15.88763         0.213551      0.826775     -0.000133
O      13.49473     15.30222      2.68620        -0.241600      0.915418      0.494241
O      13.51066     15.30444     15.80036        -0.679952      0.705203      0.341031
O       1.93969      3.89668      7.17098        -0.061080     -0.365317      0.273498
O       1.88631      0.02331      7.11091        -0.007653      0.424258      0.080052
O      13.34183      3.77370      7.03830         0.380421      0.937517      0.148758
O      13.37349     15.33662      7.09323         0.232857      0.437952     -0.204240
O       1.87322      3.79509     11.37536        -0.070867      0.377690      0.151698
O       1.82729     15.30517     11.46595         0.758458      0.109188      0.063933
O      13.40505      3.74631     11.31950         0.620088      0.786828      0.499183
O      13.48235     15.33025     11.37528        -0.430259     -0.116366      0.312623
O       1.78057      7.65160      2.67965         0.144308     -0.649986      0.371726
O       1.87739      7.55417     15.85064         0.154013      0.493700     -0.568699
O      13.51159      7.77118      2.74400        -0.109347     -0.791548      0.080823
O      13.27788      7.60554     15.72039         0.217495     -0.428380      0.438142
O       1.92998      7.68479      7.08643        -0.433255      0.447122     -0.121227
O      13.33052      7.65187      6.95394         0.574800     -0.285522      0.239074
O       1.81595      7.60093     11.48010         0.229239      0.836590      0.063979
O      13.33285      7.68129     11.53471         0.193744     -0.428073     -0.149344
O       1.96711     11.50731      2.80324         0.004822      0.695777     -0.176965
O       1.91202     11.40301     15.76513        -0.388825      0.283158      0.005745
O      13.39137     11.51284      2.67315         0.236502     -0.250820      0.494089
O      13.36844     11.48300     15.74308        -0.187484     -0.047964      0.661867
O       1.84082     11.55015      7.08982        -0.143365     -0.577399      0.213322
O      13.47788     11.51497      7.15030        -0.085615      0.411597     -0.247810
O       1.87026     11.45121     11.42732         0.167901      0.333211     -0.380447
O      13.52142     11.52755     11.32874        -0.362889     -0.326684      0.161057
O       5.75595      3.83609      2.73727        -0.532091     -0.468216     -0.154141
O       5.67248      3.79703     15.86286         0.161689      0.275252     -0.004002
O       5.97763     15.31603      2.78854        -0.762425      0.028035     -0.428223
O       5.72013     15.26918     15.96945        -0.125947     -0.145640     -0.600006
O       5.72287      3.80222      6.93492         0.131144      0.887518      0.613625
O       5.82726     15.34905      7.05360        -0.197103     -0.442537      0.090883
O       5.80886      3.85828     11.43865        -0.049717     -0.679398     -0.127326
O       5.56749      0.06290     11.42870         0.984409     -0.315147     -0.198649
O       5.75193      7.65712      2.83331         0.379376      0.476034     -0.380687
O       5.64883      7.65793     15.72733        -0.215815     -0.488559      0.350566
O       5.65663      7.66220      7.04058         0.309127      0.204107     -0.165342
O       5.70830      7.68674     11.53376         0.263849      0.058434     -0.448480
O       5.63680     11.52296      2.74428         0.521674     -0.888725      0.066928
O       5.75940     11.52071     15.72682         0.013026     -0.439971      0.257140
O       5.71724     11.47619      7.14559         0.315124      0.485049     -0.124575
O       5.60179     11.51998     11.34242         0.526365     -0.211263      0.484544
O       9.71848      3.77313      2.70044        -0.290437     -0.010371     -0.166817
O       9.44366      3.77361     15.97289         0.377994      0.097558     -0.051653
O       9.63728     15.27848      2.75354        -0.259543     -0.035967     -0.017483
O       9.55377     15.32358     15.79875         0.521923      0.095821      0.172707
O       9.43535      3.88086      6.93451         0.887343     -0.031328      0.123341
O       9.58536      0.00064      6.93640         0.022978      0.676364      0.417908
O       9.55418      3.80669     11.37518         0.019530     -0.565351      0.368446
O       9.66445      0.03687     11.43614        -0.030552     -0.751763     -0.050616
O       9.46328      7.69030      2.75560         0.307833     -0.396487     -0.181438
O       9.58212      7.59247     15.83548         0.008225     -0.161122     -0.035302
O       9.58321      7.66340      7.13944         0.262857     -0.064485      0.227452
O       9.58719      7.63246     11.44796         0.537814      0.192729      0.441585
O       9.72422     11.45251      2.71684        -0.462324      0.051811      0.161691
O       9.47784     11.46555     15.78626         0.253868     -0.128725      0.112508
O       9.53339     11.48699      7.23400         0.613211     -0.179072     -0.636522
O       9.45961     11.47714     11.44394         0.407146      1.090045     -0.099097
