  # total energy = -7881.98967890 
CRSYTAL
PRIMVEC
    15.3600000000000000    0.0000000000000000    0.0000000000000000
     0.0000000000000000   15.3600000000000000    0.0000000000000000
     0.0000000000000000    0.0000000000000000    17.440000000000000
PRESSURE
-0.162086 -0.169046 1.60823 0.194491 0.24779 -0.032676
PRIMCOORD
320 1
Pb       3.80585      3.76658      4.40630         0.302366      0.208857     -0.498157
Pb       3.85365      3.73102     17.40068        -0.171905     -0.094864     -0.176819
Pb       3.76186     15.29463      4.41657         0.481112      0.081993     -0.956304
Pb       3.73743     15.31104     17.34583         0.375983      0.340410     -0.229486
Pb       0.06358      3.74597      4.37409        -0.414607      0.265789     -0.386121
Pb       0.14228      3.85997      0.05616        -0.131503     -0.194425     -0.920345
Pb       0.06924     15.28585      4.30704        -0.339909      0.571334     -0.104216
Pb      15.16342     15.25643      0.00574         0.998235      0.143421     -0.556490
Pb       3.72228      3.86888      8.73842         0.090224     -0.365662     -0.967165
Pb       3.84438      0.01915      8.75004         0.037708      0.097825     -0.742162
Pb      15.15116      3.98227      8.69605         0.712718     -0.278789     -0.364128
Pb      15.19551      0.11043      8.78165         0.560132     -0.465309     -0.950873
Pb       3.80542      3.75267     12.93167         0.210160     -0.106690      0.577820
Pb       3.70189     15.31235     12.89555         0.345752      0.209381      0.347415
Pb       0.03802      3.69074     13.13272        -0.335928      0.853764     -0.511566
Pb       0.00230     15.30856     13.01244        -0.133403     -0.151713     -0.358408
Pb       3.84935      7.64108      4.31746         0.126598      0.330592     -0.332216
Pb       3.69767      7.54497     17.39087         0.668357      0.246688     -0.324246
Pb       0.14332      7.78527      4.32169        -0.077760     -0.359830     -0.265171
Pb      15.19978      7.65611     17.38830         0.082485      0.117269     -0.775497
Pb       3.88605      7.70720      8.73627        -0.277851      0.056258     -0.418775
Pb      15.34053      7.65857      8.72307        -0.009973     -0.138123     -0.578381
Pb       3.78477      7.55639     12.99764         0.298425      0.772725      0.043140
Pb       0.02367      7.60203     13.16110        -0.348664      0.109972     -0.784320
Pb       3.72537     11.53651      4.32396         0.302723     -0.447729     -0.451988
Pb       3.90404     11.44754     17.34290        -0.139241      0.543123      0.055475
Pb      15.34762     11.61728      4.27480         0.269020     -0.480178      0.301243
Pb      15.21204     11.52214     17.31437         0.649217     -0.116785     -0.716347
Pb       3.80758     11.54843      8.73291         0.412917     -0.010890     -0.482533
Pb      15.27049     11.39826      8.76170         0.098144      0.539729     -0.895041
Pb       3.86561     11.44045     12.97525         0.216572      0.008759     -0.205641
Pb       0.15268     11.51174     13.11495        -0.211612      0.149582     -0.683177
Pb       7.73118      3.66504      4.39286        -0.166826      0.427336     -1.132635
Pb       7.57817      3.83189     17.43862         0.202697     -0.153373     -0.293590
Pb       7.75648     15.31284      4.41312        -0.588262     -0.189906     -0.828153
Pb       7.51890     15.32346     17.39909         0.076611      0.306161     -0.339990
Pb       7.65552      3.85951      8.68046        -0.239631     -0.525645     -0.587097
Pb       7.65618     15.30084      8.64444         0.062947      0.471193     -0.306329
Pb       7.82315      3.98297     13.16494        -0.133011     -0.339368     -0.839024
Pb       7.56779      0.18771     12.99844         0.523458     -0.084573     -0.436304
Pb       7.68344      7.52565      4.30548        -0.028659      0.200542     -0.593469
Pb       7.53872      7.70673     17.43670         0.254371     -0.173719     -0.444478
Pb       7.64327      7.76363      8.69122         0.134612     -0.074424     -0.513055
Pb       7.59570      7.65693     12.96474         0.400507      0.038001      0.066971
Pb       7.71283     11.41529      4.39842         0.143044      0.371705     -0.756192
Pb       7.57089     11.56547     17.39814        -0.141314      0.111879     -0.059818
Pb       7.64572     11.54021      8.68686         0.033707     -0.035913     -0.600897
Pb       7.75368     11.53884     12.99744         0.132349     -0.159418     -0.513469
Pb      11.46388      3.73077      4.30612        -0.044719      0.529183     -0.621694
Pb      11.63217      3.80458      0.08821        -0.365424      0.130467     -0.694284
Pb      11.53751     15.24149      4.33307         0.134711      0.172262     -0.380475
Pb      11.35073     15.24362      0.02575        -0.089478      0.443429     -1.120634
Pb      11.42076      4.00981      8.70965         0.540355     -0.412125     -1.044358
Pb      11.45242     15.33373      8.67697         0.221715      0.277243     -0.661448
Pb      11.59248      3.70538     13.26551         0.017734      0.026495     -1.170844
Pb      11.52004     15.33464     13.02881         0.132808      0.205685     -0.504668
Pb      11.48671      7.68570      4.22178        -0.131673     -0.686116     -0.325032
Pb      11.48089      7.61647      0.06759         0.090100     -0.139921     -0.859733
Pb      11.52803      7.69733      8.69960         0.418990     -0.198557     -0.700684
Pb      11.41515      7.63412     13.11627         0.437845      0.273356     -0.807081
Pb      11.56666     11.41205      4.31446        -0.440407      0.587213     -0.162197
Pb      11.33108     11.45802     17.40214         0.357847      0.390460     -0.807948
Pb      11.56584     11.52331      8.73719         0.055669      0.107797     -0.670654
Pb      11.51887     11.45658     13.03023         0.210625     -0.185098     -0.634050
Ti       1.86906      1.94380      2.24675         0.277570     -0.696832     -0.244660
Ti       1.87852      1.88578     15.35945         0.524942     -0.358436      3.189091
Ti       1.88866     13.43327      2.17816         1.224528      0.197210      0.381588
Ti       1.95340     13.45481     15.31190        -0.263703     -0.056605      0.888226
Ti      13.38715      1.87535      2.24504         0.240860     -0.115019      1.461981
Ti      13.39905      1.89223     15.45924        -0.026951     -0.127755     -0.166345
Ti      13.39461     13.30990      2.22446        -0.203955      1.211352      1.743415
Ti      13.40261     13.49159     15.22965        -0.001393     -0.726079      1.969271
Ti       1.87601      1.86540      6.61174         0.003172      0.350998      1.809309
Ti       1.96261     13.41162      6.71003        -1.443633      0.267140      2.378197
Ti      13.44710      1.96314      6.61799        -0.326355     -0.217835      1.879574
Ti      13.45733     13.42808      6.61600         0.926066     -0.213589      0.573005
Ti       1.83846      1.91658     10.91865         0.122523      0.091838      1.151805
Ti       1.96408     13.41702     10.89809        -0.913845     -0.132891      0.070099
Ti      13.46411      1.95677     10.97029        -0.737643     -0.085832      1.540166
Ti      13.47848     13.39443     10.95366         0.133504     -0.082444      1.856188
Ti       1.94459      5.75242      2.28420        -0.195892     -0.035577      1.245405
Ti       1.92392      5.75757     15.33530        -0.165851     -1.102745      1.103678
Ti      13.51290      5.74890      2.26307        -0.815877     -0.245001      0.355686
Ti      13.45370      5.73710     15.29966        -0.107840      0.481461      1.968853
Ti       1.97996      5.74905      6.54519        -1.535668     -0.365158      0.785330
Ti      13.46222      5.82405      6.54750        -0.009199     -0.552968      1.064651
Ti       1.95050      5.74734     11.01917        -1.686114     -0.256980      1.141499
Ti      13.44523      5.78756     11.03524         0.320115     -0.275855      1.278315
Ti       1.96932      9.62570      2.17558         0.278485     -0.520754      1.198195
Ti       2.03245      9.56959     15.38177        -1.039521      0.426842      1.334328
Ti      13.46322      9.54140      2.25793         0.445841     -0.224884      0.103642
Ti      13.43028      9.64430     15.35068         0.061756     -0.666194      0.305016
Ti       1.98322      9.55667      6.78380        -0.709532      0.185114     -0.654773
Ti      13.41524      9.57007      6.55303         1.098535      0.321732      2.845321
Ti       1.94320      9.61015     10.94345         0.256058     -0.551089      3.166469
Ti      13.53855      9.53841     11.04974        -0.612486      0.464312      0.892595
Ti       5.62956      1.86917      2.34912         0.984252     -0.452264     -0.126656
Ti       5.75311      1.94087     15.21905        -0.907033      0.719335      0.651949
Ti       5.69694     13.39827      2.29545         1.365142      0.621898     -0.184896
Ti       5.76513     13.49532     15.16747        -0.567594      0.175341      2.801473
Ti       5.67757      1.90527      6.60473         0.907843      0.169762      1.398946
Ti       5.73047     13.43339      6.58197         0.500174      0.092607      1.161284
Ti       5.69441      1.94967     11.00265         0.959899     -0.433480     -0.423164
Ti       5.79038     13.45462     10.98251         0.031472     -0.115608      2.073902
Ti       5.76115      5.70337      2.27036         0.529138     -0.004277      1.350276
Ti       5.75908      5.73741     15.36947        -0.130790     -0.168567      0.633930
Ti       5.74446      5.83087      6.72160         0.090402     -1.433717     -0.314760
Ti       5.71730      5.68531     10.98442         1.998679      0.778777      1.816057
Ti       5.77357      9.60305      2.32821         0.444887      0.009799      0.232043
Ti       5.80548      9.68080     15.30297        -0.007213     -1.322065      1.365813
Ti       5.78152      9.59797      6.61781         0.244683      0.294077      1.739428
Ti       5.80710      9.57624     11.02096         0.069977      0.400552      0.681063
Ti       9.53217      1.85283      2.28532         0.389859      1.156210      0.761521
Ti       9.56620      1.99901     15.36245        -0.344395     -1.471486      2.577581
Ti       9.59513     13.46047      2.21032        -1.152533     -0.579336      1.456925
Ti       9.48657     13.43162     15.30189         0.609302      1.235343      1.901413
Ti       9.56771      1.96416      6.67911         0.439653     -1.394731      0.305721
Ti       9.62928     13.41496      6.64758         0.440477     -0.078428      0.684228
Ti       9.66085      1.97277     10.92607        -0.668011      0.301554      2.370005
Ti       9.62755     13.47031     11.03069         0.241348     -0.264731     -0.259467
Ti       9.63943      5.75861      2.19028        -0.698532     -0.501494      1.905625
Ti       9.59215      5.77136     15.41790        -0.052921     -0.024202      1.246131
Ti       9.55210      5.77993      6.55614         1.008179     -0.100010      0.285654
Ti       9.57849      5.80617     10.90361         0.720281     -0.468168      1.698931
Ti       9.58585      9.67620      2.27893        -0.590868     -0.788510      3.225627
Ti       9.60646      9.58710     15.33839        -0.545356      0.332954      0.440616
Ti       9.69561      9.55495      6.55091        -0.732692      0.764641      0.138964
Ti       9.65527      9.55708     10.87453         0.088700      0.798825      3.606995
O       2.00030      1.94258      0.46762        -0.544350     -0.130594      1.024667
O       1.93051      1.87802     13.66756        -0.146026      0.068103     -2.544677
O       1.91641     13.48860      0.43807        -0.228486     -0.286999      0.236836
O       1.94008     13.53994     13.54729        -0.087788     -0.264735     -0.287029
O      13.29957      1.97598      0.52517         0.368688     -0.123252     -1.239802
O      13.27836      1.86798     13.64936         0.627714      0.058741      1.291352
O      13.48136     13.25714      0.50394        -0.115598      0.215532     -0.626294
O      13.55019     13.60681     13.51529        -0.164732     -0.256824     -0.749646
O       1.79537      1.89325      4.88059         0.217921     -0.394852     -1.685783
O       2.04607     13.35602      4.97795        -0.044687      0.097752     -1.387065
O      13.48446      1.88799      4.89077         0.040935     -0.003028     -0.821298
O      13.42906     13.37871      4.82709         0.144829      0.164525      0.297028
O       1.82072      1.96730      9.20356         0.455949      0.093071     -0.346475
O       1.80329     13.42220      9.13739         0.722059     -0.149168      0.694307
O      13.48020      1.97078      9.23274        -0.114240      0.253606     -0.359445
O      13.50547     13.39958      9.24477        -0.214191      0.103819     -1.674107
O       1.95319      5.56495      0.55331        -0.200901      0.746881     -0.606128
O       1.85483      5.74006     13.58155         0.369038     -0.029952     -0.458448
O      13.36682      5.79498      0.44805         0.338301      0.086842      0.691056
O      13.52171      5.81988     13.58236        -0.150149     -0.272703     -1.006265
O       1.83176      5.83249      4.78851         0.352750     -0.083157     -0.035997
O      13.50187      5.82146      4.81826        -0.150433     -0.101984     -0.068234
O       1.88094      5.65532      9.30967         0.502142      0.067221     -1.197003
O      13.51640      5.78440      9.25870        -0.526261     -0.041794     -0.018380
O       2.02609      9.72527      0.45174        -0.162701     -0.559476     -0.546021
O       2.10460      9.51911     13.65345        -0.296094      0.237210     -0.645618
O      13.45913      9.56128      0.48065        -0.092445      0.044077      0.219030
O      13.42788      9.57289     13.61885         0.088785      0.186617     -0.977384
O       2.04752      9.49083      5.00806        -0.135432      0.553788      0.117124
O      13.49721      9.63548      4.85535        -0.072357     -0.138503     -1.562964
O       1.89256      9.52036      9.26563         0.278380      0.218432     -2.325670
O      13.43587      9.43292      9.30546         0.066219      0.184428     -0.451300
O       5.67268      1.80973      0.57154         0.094193      0.146615      0.585387
O       5.71992      1.99379     13.40957         0.070231     -0.161550      0.627091
O       5.73901     13.42727      0.50779         0.093744      0.283043      0.195824
O       5.83394     13.37375     13.45898        -0.100902      0.291069     -0.515996
O       5.68838      1.89495      4.85927         0.114120     -0.067825     -0.673360
O       5.69703     13.49696      4.84828        -0.181754     -0.347202     -0.121272
O       5.62283      1.87372      9.19846         0.325273      0.458234      1.050857
O       5.85485     13.47726      9.28932        -0.228586     -0.117351     -2.208228
O       5.75060      5.78043      0.53266         0.071668      0.081856     -0.424881
O       5.87144      5.67593     13.61786        -0.268031     -0.040698     -0.523134
O       5.76705      5.87841      4.98787        -0.081931     -0.093316     -0.386627
O       5.76022      5.71560      9.27562        -0.127832      0.062384     -1.922360
O       5.81137      9.61401      0.56817        -0.098055     -0.312363     -0.457954
O       5.78134      9.66911     13.58001        -0.009208      0.004090     -0.891967
O       5.67537      9.53616      4.91760         0.219720      0.191231     -1.119953
O       5.86000      9.63037      9.27785        -0.110376     -0.329500     -0.562646
O       9.46618      1.86923      0.55833         0.157917      0.006377     -0.523047
O       9.60734      1.98670     13.65989         0.315607      0.008062     -1.564367
O       9.53758     13.35318      0.44723         0.215077      0.217482      0.391713
O       9.45173     13.45827     13.59929         0.112271     -0.094592     -1.983169
O       9.57813      1.78661      4.89724         0.072179      0.477758     -0.232908
O       9.74338     13.39490      4.91530        -0.221097      0.624912     -0.640450
O       9.50810      2.03241      9.21747         0.728826      0.232508     -0.803888
O       9.70424     13.35422      9.24002        -0.114025      0.071566      0.495519
O       9.47415      5.76228      0.46987         0.523073      0.005877     -1.225786
O       9.50336      5.73336     13.65939         0.168415      0.504048      0.070931
O       9.72752      5.73924      4.79740        -0.556032      0.100783      0.746670
O       9.61399      5.74871      9.15026        -0.099889     -0.042206     -0.596082
O       9.55466      9.67864      0.60589         0.147940      0.241537     -2.440321
O       9.59572      9.63222     13.58053         0.119345     -0.235644      0.251070
O       9.60388      9.58153      4.76744         0.403850      0.017349      0.526761
O       9.72509      9.69531      9.18497        -0.131026     -0.250444     -1.849500
O       3.77271      2.06046      2.76203        -0.169399     -0.420829      0.028681
O       3.77344      1.98345     15.79114         0.680599     -1.013775     -0.443360
O       3.88849     13.37725      2.61455        -2.121226     -0.133879      0.588615
O       3.85809     13.50989     15.69061         0.669548      0.079672     -0.335084
O      15.32527      1.80651      2.64225         0.397711     -0.257534      0.083062
O      15.32200      1.91620     15.84020        -0.546191      0.131906     -0.153285
O       0.08227     13.56428      2.78271        -0.982946     -0.875743     -0.714770
O      15.33838     13.42015     15.76140        -0.222679     -0.234419     -0.128644
O       3.84434      1.88748      7.04603        -0.881992      0.064076      0.070168
O       3.88451     13.48554      7.14837        -0.391306     -0.374019     -0.101375
O       0.09255      1.97616      7.16074        -1.834665     -0.031389     -0.409876
O       0.01403     13.40315      7.01090        -0.390621     -0.140100     -0.276725
O       3.79564      1.88672     11.34467        -0.081125      0.089805     -0.061494
O       3.85954     13.56860     11.30584        -0.270109     -0.337204     -0.051399
O      15.32455      2.02118     11.54614         0.414632     -0.596939     -0.621734
O       0.10507     13.28722     11.40600        -0.681784      0.393966      0.178572
O       3.85097      5.60567      2.69257         0.034745      0.313949      0.117911
O       3.78241      5.77660     15.82483         0.210920     -0.266385     -0.379157
O      15.31958      5.96525      2.63873         1.149414     -0.357857     -0.253315
O      15.34855      5.72210     15.81927         0.324936     -0.083295     -0.053351
O       3.81328      5.75228      7.10516         0.018348      0.244686      0.146152
O       0.02364      5.77457      7.11034        -0.217111     -0.055172     -0.440900
O       3.92476      5.78237     11.39760        -1.646783     -0.223816      0.088481
O       0.01425      5.70916     11.41513         0.297608     -0.307140      0.214472
O       3.93809      9.62250      2.74789        -1.485330      0.138298     -0.121244
O       3.85892      9.53191     15.84399         0.742463     -0.012042     -0.190825
O       0.13811      9.50454      2.64183        -1.291528     -0.084342     -0.094670
O      15.33526      9.55935     15.79140         0.857821      0.506910     -0.072959
O       3.92582      9.60557      7.16780        -0.849403     -0.255609      0.298043
O       0.01182      9.59905      7.16720        -0.276033     -0.092292     -0.378754
O       3.87569      9.49472     11.42988        -0.242790      0.166502     -0.188600
O       0.10534      9.77553     11.47555        -0.314610     -0.541224     -0.131686
O       7.71776      1.79421      2.77215        -0.455278      0.119619      0.191566
O       7.60040      1.99639     15.63523         0.159725      0.217759      0.178004
O       7.66622     13.56285      2.71399         1.168807     -0.128840     -0.078925
O       7.59143     13.41251     15.82874        -0.572099      0.140939     -0.647086
O       7.70266      1.91298      7.14987        -1.069081      0.023503     -0.328557
O       7.72662     13.48932      6.97092        -0.819821     -0.468411      0.186724
O       7.80477      1.91720     11.35125        -0.849714      0.009498      0.098233
O       7.65887     13.43836     11.31537         1.531998     -0.047680      0.376435
O       7.72938      5.78844      2.71855        -0.942839     -0.182628     -0.004008
O       7.63692      5.62995     15.85653         0.187485      0.409384     -0.276878
O       7.66073      5.90461      7.04075         0.394536     -0.481031      0.136544
O       7.76888      5.74528     11.34287        -1.560068      0.229866      0.197629
O       7.68832      9.65882      2.76654         0.130055     -0.539569      0.050850
O       7.67264      9.62699     15.79109        -0.474431      0.061731     -0.173327
O       7.74936      9.68577      6.98685        -0.097767     -0.525612      0.270471
O       7.72694      9.63978     11.32689        -0.202272      0.181029      0.040375
O      11.55706      1.99477      2.66496        -0.527010      0.226626      0.309445
O      11.42778      1.75928     15.91445         0.655254      0.608768     -0.333354
O      11.53440     13.26520      2.66999         0.011996     -0.058454     -0.383772
O      11.48422     13.53916     15.70149         0.076666     -0.289915     -0.153498
O      11.49164      1.93125      7.08115         0.466487      0.106400     -0.088667
O      11.61647     13.48753      7.01098        -0.646083      0.226973      0.513098
O      11.63932      1.97141     11.63101        -1.421622     -0.224651     -1.109768
O      11.59025     13.36519     11.47835        -0.791555      0.485582     -0.127973
O      11.51381      5.68967      2.60215         0.803780      0.199034      0.106340
O      11.56395      5.79824     15.76203        -1.104146      0.245363     -0.077127
O      11.49797      5.73066      7.02243         0.163360      0.018443      0.163090
O      11.52287      5.98038     11.34082        -0.213119     -0.199142     -0.033382
O      11.53745      9.55833      2.65060         0.068303      0.829320     -0.099371
O      11.46729      9.69851     15.80994        -0.069742     -0.502430      0.039487
O      11.56661      9.64483      7.07519        -0.322351     -0.538766     -0.289228
O      11.62410      9.47848     11.50304        -1.075103      0.112312     -0.369323
O       1.78047      3.82065      2.66435        -0.205721      0.147264      0.383620
O       1.97681      3.75191     15.81340        -0.931909      1.579320     -0.238823
O       2.06633     15.32374      2.68355        -0.369695      0.201824      0.041785
O       1.81677     15.30022     15.79255         0.321036      0.634318      0.025680
O      13.59844      3.87630      2.69124        -0.369815     -0.386518     -0.227079
O      13.34785      3.82820     15.77639        -0.043983     -0.509356     -0.209103
O      13.27434     15.27473      2.60890         0.602117      0.023641     -0.153229
O      13.48041     15.33631     15.90747        -0.422431     -0.029782     -0.452743
O       1.90029      3.82750      6.72939         0.636527      0.873991      0.784384
O       1.80140     15.35306      7.12386         0.891913     -0.432874     -0.451675
O      13.43450      3.84675      7.08397        -0.016110      0.458893     -0.350368
O      13.46447      0.07552      7.20028         0.072053     -0.593887     -0.706861
O       1.95550      3.78927     11.38386         0.206938      0.166978      0.309716
O       1.86185     15.33977     11.35491        -0.106878      0.492141     -0.145158
O      13.36932      3.86147     11.53381         0.255336      0.389062     -0.348524
O      13.46809     15.34750     11.30687         0.359393      0.395777      0.134242
O       2.04605      7.65129      2.72442         0.121393      0.348960     -0.669179
O       1.91810      7.62963     15.78150        -0.181749      0.285099      0.098585
O      13.39045      7.70943      2.72311         0.004933      0.020558     -0.346068
O      13.45915      7.71797     15.64456        -0.126397     -0.796575      0.765656
O       1.83771      7.68761      7.08980         0.913418     -0.665565      0.263467
O      13.42541      7.67288      7.06916        -0.109780      0.049324     -0.220797
O       1.85352      7.62767     11.39055         0.528212      0.630080      0.145317
O      13.62069      7.67604     11.51043         0.036568     -0.027866     -0.077365
O       1.81019     11.47052      2.66951         0.784807      1.021554      0.122631
O       2.07213     11.56866     15.73747        -0.640499     -0.905416     -0.387146
O      13.55688     11.45136      2.72792         0.083427      0.069543     -0.261230
O      13.42812     11.52832     15.60558        -0.009509      0.951613      0.409421
O       1.97200     11.48979      7.24362         0.129857      0.139883     -0.492198
O      13.44922     11.46147      7.06649        -0.030408      0.637673     -0.036624
O       2.06076     11.50474     11.48124         0.187793      0.148039     -0.529648
O      13.40654     11.50869     11.24675         0.152985     -0.636037      0.638755
O       5.83674      3.78319      2.72944         0.193327      0.453587      0.120285
O       5.63864      3.78675     15.91529         0.533293      0.344085     -0.710723
O       5.75003     15.35562      2.81099        -0.722625      0.309539     -0.088715
O       5.72084      0.12853     15.70822         0.248621     -1.668085     -0.496926
O       5.75942      3.80578      6.89452         0.096466      0.784652      0.752403
O       5.70127     15.34564      7.07796         0.462273     -0.312931     -0.109783
O       5.75764      3.85448     11.41162        -0.075074     -0.611173     -0.339653
O       5.81897      0.04967     11.42979        -0.270347      0.172419     -0.157835
O       5.78920      7.64853      2.82058        -0.182887     -0.220929     -0.605960
O       5.73291      7.58281     15.63148         0.320875      1.354440      0.588361
O       5.72508      7.69779      7.21796         0.265612      0.303640     -0.059953
O       5.80311      7.65908     11.45331         0.059356     -0.167560     -0.242618
O       5.80775     11.53793      2.58379         0.216067     -0.478625      0.792853
O       5.72071     11.53218     15.78928        -0.062293      0.196381     -0.748270
O       5.74444     11.49264      7.07154         0.150200      0.781968     -0.072698
O       5.73163     11.53387     11.33628        -0.201835     -0.355053      0.263836
O       9.55781      3.86134      2.69997         0.073132     -1.134174      0.221656
O       9.58674      3.86699     15.79798         0.320597      0.022016     -0.058715
O       9.82761     15.33785      2.63901        -0.338850     -0.626049      0.053591
O       9.40216      0.00480     15.77253         0.328377     -0.162702      0.137836
O       9.56550      3.80778      6.95424        -0.225095      1.763951      0.368377
O       9.55549      0.04444      7.15998         0.604820     -0.847034     -0.037557
O       9.56093      3.93530     11.53034         1.152833     -0.558486     -0.877658
O       9.73933      0.01890     11.31419        -0.127195     -0.017126      0.030489
O       9.63631      7.63295      2.58216         0.113340      1.156314      0.256084
O       9.49890      7.73679     15.89994         0.465183     -0.600837     -0.462019
O       9.68306      7.68789      6.94684        -0.184891      0.120094      0.251301
O       9.45741      7.74479     11.41284         0.727541     -0.640611     -0.435950
O       9.51347     11.58682      2.81703         0.453852     -0.497386     -0.565682
O       9.53728     11.58422     15.75717         0.164486     -1.020921      0.088165
O       9.73371     11.53256      6.88825        -0.271791     -0.308066      0.600832
O       9.68704     11.49047     11.47917        -0.206674      0.082487     -0.335575
