  # total energy = -7876.95167177 
CRSYTAL
PRIMVEC
    15.2000000000000000    0.0000000000000000    0.0000000000000000
     0.0000000000000000   15.2000000000000000    0.0000000000000000
     0.0000000000000000    0.0000000000000000    17.000000000000000
PRESSURE
7.7047 7.9757 4.89418 0.018273 0.026701 0.075424
PRIMCOORD
320 1
Pb       3.68558      3.91984      4.30716        -0.057597     -0.292159     -0.140526
Pb       3.85139      3.93125      0.05517        -0.176976     -0.870881     -0.652481
Pb       3.70090      0.12862      4.39157        -0.576388     -0.343198     -1.325388
Pb       4.00187     15.16964      0.05141        -1.538475      0.247234     -0.007510
Pb      15.18536      4.12978      4.32909        -0.168322     -1.444586     -0.022556
Pb      15.14417      3.74140     16.98098        -0.439474     -0.092784     -0.652677
Pb       0.08431      0.18281      4.21025        -0.232879     -0.637938     -0.084491
Pb       0.05012     15.14361     16.91261         0.284114      0.467532      0.053487
Pb       4.02182      3.57162      8.49026        -0.619020      1.014471      0.026732
Pb       3.81004     15.08782      8.54525        -0.111388      0.420629      0.035323
Pb      15.14820      3.76807      8.45153         0.499344     -0.278220     -0.500894
Pb       0.01090     15.12249      8.71122        -0.312468      0.009938     -0.657938
Pb       3.77242      3.79222     12.76695         0.014454      0.019056     -0.698912
Pb       3.77834     15.07812     12.80077         0.123796      0.372138     -0.891687
Pb       0.11310      3.59916     12.77455        -0.007311      0.489854      0.012129
Pb       0.02766     15.11393     12.75343         0.202382      0.279088     -0.339752
Pb       3.73249      7.55398      4.28974         0.279868      0.846458      0.428456
Pb       3.89778      7.66055      0.25790        -0.356281      0.515001     -0.999562
Pb      15.14747      7.59905      4.11969        -0.043062      0.385218      0.622397
Pb       0.11189      7.57691     16.90697        -0.624522      0.100613      0.237789
Pb       3.78839      7.55233      8.41941         0.493507      0.054782     -0.028075
Pb      15.01544      7.50670      8.46566         0.883847      0.589973     -0.232761
Pb       3.67862      7.51982     12.71421         0.492071     -0.491445     -0.106567
Pb      15.09911      7.47964     12.70201         0.233468     -0.054233     -0.304290
Pb       3.56020     11.58036      4.28441         0.312128     -1.050610      0.160949
Pb       3.95909     11.38834      0.13417        -0.633460     -0.228552     -0.499968
Pb      14.96857     11.53592      4.28519         1.217567      0.229756     -0.069975
Pb       0.05776     11.45765     16.96053         0.048243     -0.413086     -0.140567
Pb       3.83403     11.43084      8.45134        -0.244842     -0.261801     -0.057665
Pb      15.02712     11.24830      8.61148         0.421959      0.748084     -0.213691
Pb       3.60531     11.20510     12.87950         0.687089      0.702063     -0.624142
Pb      15.11897     11.27307     12.63362        -0.110542      0.411954      0.173972
Pb       7.50508      3.68967      4.11168         0.617828      0.637289      0.518173
Pb       7.63917      3.85487      0.04104        -0.275866     -0.123088     -0.882875
Pb       7.50748     15.18155      4.27842         0.558121     -0.125977     -0.313398
Pb       7.58762     15.09419      0.07959         0.300450      0.238313     -0.257326
Pb       7.81329      3.79105      8.22556        -0.947895      0.179758      0.915408
Pb       7.54153     15.11357      8.41651         0.127992      0.718785     -0.226135
Pb       7.44784      3.72962     12.68790         0.353691      0.828373      0.239012
Pb       7.63465      0.19234     12.67175        -0.611267     -1.268896      0.374857
Pb       7.68277      7.50266      4.41653        -0.401877      0.420627     -0.181222
Pb       7.49364      7.62406     16.95330         0.135107     -0.242081     -0.114451
Pb       7.64073      7.63257      8.43235        -0.772970     -0.457978     -0.480665
Pb       7.58772      7.59350     12.80506        -0.142733     -0.458335     -0.721767
Pb       7.52359     11.23248      4.13266         0.118189      0.058813      1.165537
Pb       7.72540     11.44245      0.01536        -0.296553     -0.177408     -0.349964
Pb       7.45303     11.47323      8.33580         0.690914     -0.631079      0.539117
Pb       7.49931     11.29181     12.70524         0.129237      0.681678     -0.426117
Pb      11.43136      3.83712      4.06709         0.312028      0.107139      0.756073
Pb      11.46087      3.81281      0.03136         0.473309     -0.352980     -0.890000
Pb      11.46259     15.17574      4.26813        -0.195425      0.178011     -0.611664
Pb      11.40901     15.03014     16.93973        -0.136300      0.602991     -0.086161
Pb      11.42248      3.68029      8.43250        -0.343699      0.660955     -0.154297
Pb      11.26119     15.17142      8.53951         0.573151     -0.259586     -0.095844
Pb      11.36610      3.75540     12.76744         0.011519      0.069323     -0.348959
Pb      11.36125      0.07437     12.81621         0.088650     -0.056092     -0.701882
Pb      11.53074      7.58189      4.11837        -0.827860     -0.052341      0.120985
Pb      11.28848      7.52273     16.91411         0.264361      0.083271      0.580380
Pb      11.37434      7.58410      8.33764        -0.245764     -0.618664      0.277342
Pb      11.26477      7.48556     12.59340         0.615593      0.618685      0.626881
Pb      11.46494     11.37052      4.22222        -1.397771      0.091901     -0.245127
Pb      11.46925     11.39081     16.90939        -0.741481      0.188457      0.094928
Pb      11.34376     11.44954      8.66000        -0.084364      0.368431     -0.590898
Pb      11.32951     11.22839     12.85275        -0.156245     -0.104954     -1.001336
Ti       1.87388      2.00182      2.27748         0.423467     -1.208897     -0.206950
Ti       1.97077      1.89636     15.12687        -0.886919     -0.768587     -0.281817
Ti       1.86440     13.30224      2.27385        -0.657332      1.286725      0.798119
Ti       1.87441     13.19099     14.87095         0.878496      1.110680      0.652133
Ti      13.31118      1.87621      2.20616         0.200891      0.519265     -0.158965
Ti      13.28149      1.84728     14.90040         0.034346      1.107719      2.207272
Ti      13.25771     13.31530      2.18135         0.704560      1.022409     -0.091652
Ti      13.30432     13.26005     14.89048        -0.110363      0.953875     -0.451200
Ti       1.83359      1.85058      6.52009         0.003617      1.410296      0.563050
Ti       1.76663     13.28890      6.63645         0.418749      0.310539     -0.650969
Ti      13.27178      1.84092      6.44737         0.204164      0.852035      1.160543
Ti      13.27481     13.38304      6.47013        -0.322775      0.375431      1.370808
Ti       1.85925      1.96937     10.59996         1.485125     -0.789835      1.529859
Ti       1.95767     13.25653     10.78852        -0.130613      0.819460      0.747872
Ti      13.26912      1.92125     10.61656        -0.059248     -0.955071      1.454197
Ti      13.22409     13.34536     10.81174         0.339752     -0.036310     -0.669295
Ti       1.90639      5.76335      2.20090        -0.535012     -0.049692      0.995864
Ti       1.92841      5.64069     15.02688        -0.713033      0.335457     -0.516762
Ti      13.32743      5.71335      2.08404        -0.468009     -0.368984     -0.930282
Ti      13.30957      5.76285     14.90539         0.452198     -2.200953      2.091118
Ti       1.96019      5.71082      6.54345         0.173564     -0.838088      0.584631
Ti      13.35804      5.68404      6.54385        -1.938706     -0.214153     -0.417564
Ti       1.96374      5.70237     10.60926         0.560647     -0.543123      0.542060
Ti      13.34396      5.64548     10.64584        -0.160478     -0.093197      0.617128
Ti       1.75629      9.51498      2.36572         1.420517      0.741350     -0.087140
Ti       1.85208      9.41238     15.02603         0.808917      0.497731      0.752521
Ti      13.22704      9.54612      2.19786        -0.824271     -0.378496     -0.505635
Ti      13.19001      9.43335     15.00155         1.064124      0.487004     -0.555680
Ti       1.75111      9.49273      6.54222         0.917582     -0.228991     -1.228350
Ti      13.17414      9.59745      6.48332         0.533580     -0.349391      1.084175
Ti       1.87356      9.45438     10.71555        -0.046862      0.525173     -0.452826
Ti      13.22962      9.47238     10.66503        -0.502912     -0.682753      1.848317
Ti       5.70943      1.89511      2.29089        -0.870354     -0.680938     -0.535766
Ti       5.74200      1.89229     15.04947        -0.455062      0.448093      0.641567
Ti       5.66106     13.29811      2.31194        -0.613318     -0.275801      0.439152
Ti       5.63994     13.25836     14.98545         0.315923     -0.097155     -1.464655
Ti       5.63797      1.85682      6.32665         1.663481      0.399127      2.106151
Ti       5.64799     13.34314      6.36569        -0.678362     -0.812249      1.506051
Ti       5.70352      1.89141     10.65880        -1.473462     -0.013640      0.531816
Ti       5.74061     13.31405     10.60812        -1.019761     -0.779002      1.825841
Ti       5.65114      5.68807      2.18092         0.116959      0.715814      1.540752
Ti       5.67931      5.69369     14.88983        -0.170091     -0.455894      0.770364
Ti       5.70419      5.60006      6.41872         0.876288      1.392366      1.038191
Ti       5.77444      5.74231     10.63970        -0.337213     -1.305415      0.574013
Ti       5.60543      9.45042      2.30890        -0.544326      0.290427     -0.011877
Ti       5.64064      9.51536     14.96023        -0.083118     -0.547046      1.818702
Ti       5.55187      9.43394      6.49870         0.736838     -0.826213      0.800667
Ti       5.66580      9.44903     10.73958         0.062266      0.268597     -1.019741
Ti       9.51779      1.89658      2.10529         0.872063     -0.517131      1.168355
Ti       9.44239      1.88736     15.05369         0.744775      0.538852      0.551031
Ti       9.43019     13.23639      2.30967         1.241714      0.415039      0.534094
Ti       9.44050     13.32501     14.75724         0.169555     -0.326381      2.252012
Ti       9.49988      1.83058      6.36947        -0.140774      0.482030      1.108069
Ti       9.45777     13.31446      6.42796         0.542619     -0.641844     -0.423462
Ti       9.46807      1.89007     10.70690         0.723773      0.760553     -0.674402
Ti       9.41348     13.28800     10.68657         0.374537     -0.613179      0.334223
Ti       9.44827      5.68129      2.16496         0.227225      1.220258     -0.672293
Ti       9.48335      5.69647     14.98815        -0.574929     -0.593894      2.318677
Ti       9.55082      5.70610      6.31552        -0.012442     -0.467628      1.719380
Ti       9.51778      5.63370     10.67316        -0.014615     -0.560210     -0.062969
Ti       9.37489      9.43539      2.21766         0.648886      0.299635      0.691291
Ti       9.41511      9.46488     14.99186        -0.411172      0.990890     -0.388083
Ti       9.47221      9.52715      6.53358        -0.949089     -0.036025     -1.747189
Ti       9.39666      9.42395     10.65795         0.534063      0.812846      1.074318
O       1.89329      1.89821      0.52690        -0.085292      0.302003     -0.908541
O       1.86535      1.94779     13.34764         0.175209      0.040548     -0.608211
O       1.86745     13.34287      0.55951        -0.322843     -0.536028     -1.660316
O       1.89050     13.18423     13.06179         0.332041      0.356462      0.724250
O      13.21036      1.92465      0.43577         0.262766      0.036815      0.149719
O      13.25247      1.84153     13.15911         0.140837      0.346514     -1.045570
O      13.22680     13.29417      0.37448         0.153810     -0.234554     -0.011635
O      13.41562     13.35885     13.09636        -0.855388     -0.369680      0.344350
O       1.83232      1.96017      4.72704         0.581866     -0.432917     -0.354606
O       1.75534     13.38165      4.82370         0.319034     -0.071895      0.596550
O      13.17629      1.85241      4.71638         0.160608     -0.040756     -1.177134
O      13.38997     13.47138      4.69848        -0.494577     -0.590750     -0.217639
O       1.97143      1.84533      8.88017        -0.344158      0.383294     -1.223880
O       1.98296     13.30029      9.02270        -0.218958     -0.022267     -1.121342
O      13.31357      1.84536      8.88091         0.123694      0.097284     -0.538146
O      13.23349     13.42512      8.99654         0.234091     -0.502878      0.618723
O       1.95167      5.96636      0.47006        -0.040117     -0.786386     -0.780369
O       1.97791      5.64114     13.24580        -0.316093      0.118073     -0.763317
O      13.33465      5.64318      0.28129        -0.109789      0.271802      1.303936
O      13.45746      5.59315     13.18589        -0.266367      0.340249     -1.283044
O       1.87767      5.71330      4.75835        -0.179772     -0.158576     -0.977492
O      13.23832      5.65738      4.78073         0.411875      0.172760     -0.991737
O       2.01634      5.59682      8.86048        -0.447779      0.399126     -0.629661
O      13.33727      5.66294      8.82147        -0.084548      0.287930      0.653023
O       1.84874      9.54431      0.58059         0.178629     -0.060071     -0.341018
O       1.85572      9.57433     13.26729         0.180980     -0.472626     -1.049914
O      13.20257      9.65278      0.46575        -0.048386     -0.062537     -1.399213
O      13.13433      9.45792     13.21732         0.346146      0.054573      0.234232
O       1.82599      9.50643      4.72806        -0.657426     -0.053781      0.707574
O      13.29730      9.66513      4.73958        -0.383606     -0.310783     -1.261140
O       1.87131      9.41483      8.96154         0.178930      0.299857     -0.475551
O      13.22244      9.55726      8.92937        -0.053398     -0.437323     -1.272239
O       5.75916      1.89431      0.50362        -0.400622     -0.161355      0.101714
O       5.81658      1.88354     13.28884        -0.151596     -0.025794     -1.018996
O       5.65263     13.41199      0.52342         0.341223     -0.552607     -0.344468
O       5.67841     13.17960     13.18090        -0.134603      0.226025      1.178051
O       5.77010      1.94958      4.57675        -0.224174     -0.417991     -0.676554
O       5.55682     13.33927      4.64437         0.148962     -0.053324     -1.358495
O       5.72962      1.83415      8.90224         0.048929      0.033551     -0.173591
O       5.69116     13.39807      8.85013         0.129605     -0.333042     -1.020835
O       5.60999      5.74781      0.41524        -0.132705     -0.306243     -0.359696
O       5.64384      5.59566     13.14728         0.252703      0.138779     -0.987916
O       5.69594      5.69573      4.67852        -0.008727     -0.270014     -1.549359
O       5.76878      5.59033      8.90667        -0.237842      0.437159     -1.017594
O       5.64295      9.53215      0.47967        -0.207015     -0.475988      0.677855
O       5.80883      9.63519     13.23271        -0.453591     -0.361598     -1.418851
O       5.60160      9.45890      4.79327        -0.059975     -0.033900     -1.698199
O       5.64964      9.30348      8.94990        -0.033235      0.255980     -0.048793
O       9.55002      1.90552      0.36344        -0.032886      0.594228     -0.926764
O       9.35657      1.79014     13.26582         0.260305      0.381942     -0.727880
O       9.46587     13.15920      0.55262         0.021305     -0.094066     -0.494653
O       9.49983     13.43595     13.04254        -0.204240     -0.579678     -0.886818
O       9.55897      1.81096      4.64937        -0.070998     -0.251159     -1.106632
O       9.54807     13.32126      4.64300        -0.120245      0.531670      0.023199
O       9.39752      2.06015      8.94050         0.368356     -0.759533      0.017494
O       9.43897     13.24116      8.86489        -0.069963      0.043739      0.656519
O       9.42282      5.66091      0.31583         0.271662      0.080759      1.406765
O       9.49052      5.74199     13.30208        -0.094560      0.357303     -2.590201
O       9.61610      5.97188      4.59592        -0.184168     -0.558755     -1.319553
O       9.59368      5.46726      8.92022        -0.124905      0.680732     -0.036839
O       9.42615      9.56985      0.46032        -0.211302      0.078973     -0.588265
O       9.43444      9.42681     13.17782        -0.120947      0.115879      0.481658
O       9.57073      9.32390      4.70536        -0.152485      0.285069      1.175605
O       9.39636      9.58032      8.91545         0.051430     -0.315618     -1.016930
O       3.78654      1.89523      2.59414         0.713945     -0.045091      0.482284
O       3.79481      1.90875     15.41749         1.434784      0.649711      0.163716
O       3.72087     13.42470      2.53421         1.169507     -0.974980      0.761022
O       3.72736     13.18960     15.37487         0.744691      0.558603     -0.197600
O       0.01004      1.90470      2.60023        -0.662756      0.502571     -0.022550
O      15.15264      1.90293     15.35751         0.186161     -0.507261      0.209991
O      15.16393     13.37183      2.59822        -0.582139     -0.256841     -0.042461
O       0.03164     13.38429     15.23516        -0.640098     -0.188392      0.335994
O       3.86338      1.82322      6.76261        -0.615709      0.240065     -0.184719
O       3.79215     13.37833      6.85430        -0.478342     -0.764368      0.007762
O      15.19589      1.86651      6.80600        -0.024729      0.232590      0.272966
O      15.12933     13.15777      7.02877         0.511919      0.614153     -0.158076
O       3.71590      1.89079     10.99230         1.298168      0.167693      0.427438
O       3.87235     13.25658     11.04901        -1.224762     -0.011205      0.318974
O       0.03869      1.93571     10.99165        -1.778976     -0.092898      0.194703
O       0.02215     13.27257     11.14777        -0.983365      0.270774     -0.480442
O       3.73807      5.78585      2.56054         0.351282     -0.839200      0.151817
O       3.76090      5.50265     15.26091         1.184920      0.207950      0.657749
O      15.16918      5.71283      2.64856         0.939241      0.522689     -0.370460
O       0.02207      5.72004     15.35832        -0.372166      0.698226     -0.005535
O       3.84955      5.61305      6.61694        -0.876658      0.182128      0.802254
O      15.19748      5.66899      6.75765         0.357866     -0.107556      0.615320
O       3.87129      5.62283     11.02116        -1.439475      0.501481      0.306379
O       0.05698      5.71146     10.99485        -0.952627      0.166984     -0.094920
O       3.71208      9.50965      2.75067        -0.094202      0.498798     -0.468529
O       3.80228      9.47482     15.47635        -0.470816      0.263379     -0.468050
O      15.06030      9.44717      2.40347         1.107358      0.143762      1.113005
O       0.00364      9.48306     15.33118        -1.028482     -0.232278      0.282624
O       3.68780      9.31636      6.78053        -0.007946      0.661875      0.605197
O      15.07824      9.44817      6.87626         0.116817      0.548199      0.392283
O       3.83919      9.45396     11.20463        -1.402478      0.449802     -0.029963
O      15.12943      9.42406     10.92484         0.650161      0.122915      0.629342
O       7.67801      1.86588      2.58368        -1.160267      0.196909      0.143107
O       7.57789      1.82226     15.60987         0.567874     -0.218221     -0.749367
O       7.59348     13.18692      2.73538        -0.686627      0.736847     -0.446554
O       7.61951     13.30693     15.45071        -0.373752      0.063410     -0.656181
O       7.64306      1.81591      6.75152        -0.699010     -0.069266     -0.277394
O       7.48745     13.36012      6.66998         1.085274     -0.338582      0.338437
O       7.56645      1.91863     11.11984         0.117212     -0.231370     -0.225447
O       7.54911     13.35310     11.02382         0.857693      0.152544      0.060537
O       7.49142      5.75558      2.51426         0.974008      0.001042      0.042456
O       7.52088      5.68021     15.33332         1.034357      0.631916      0.204987
O       7.62740      5.74114      6.67884         0.706457     -0.187549      0.100474
O       7.66824      5.78517     11.00440        -0.431518     -0.515398      0.533113
O       7.46171      9.28232      2.77167         0.688897      0.811564     -0.609614
O       7.49122      9.49487     15.51510         0.483286      0.041056     -0.796033
O       7.56485      9.43424      6.69877         0.457560     -0.112284      0.753160
O       7.56151      9.43551     11.11264        -0.373654     -0.636622      0.290334
O      11.45403      2.02716      2.63824        -0.964229     -0.436245     -0.573263
O      11.38386      2.03861     15.35081        -0.143324     -0.322175     -0.404642
O      11.37723     13.25902      2.61216         0.212133      0.072186      0.070752
O      11.34642     13.24643     15.22636         0.292970     -0.342637     -0.164841
O      11.36580      1.82038      6.94363         0.086849     -0.131062     -0.514292
O      11.38393     13.38080      6.84249         0.187672     -0.070165     -0.174436
O      11.37242      1.97141     11.04632         0.037565     -0.395837      0.266950
O      11.35451     13.28980     10.98057        -0.539331     -0.726605      0.438179
O      11.44257      5.70172      2.50718        -0.976786      0.047872     -0.310741
O      11.40924      5.68327     15.33328        -0.483243      0.143825     -0.163828
O      11.38511      5.59168      6.82702         0.342710      0.640582      0.151271
O      11.41760      5.69262     11.20046         0.589831     -0.385933     -0.642069
O      11.27036      9.48283      2.53791         1.786564      0.276194      0.303108
O      11.32027      9.49509     15.33169         0.481662      0.374722      0.075048
O      11.31568      9.51446      6.99420         0.683280      0.230546     -0.372701
O      11.32123      9.39615     11.05061         0.235564      0.651015      0.004670
O       1.98480      3.89458      2.60205        -0.505717      0.126651     -0.063561
O       1.79403      3.80584     15.35021         0.188214     -0.472960      0.850570
O       1.88387      0.05448      2.64170         0.003807     -0.120105      0.551420
O       1.97876     15.18600     15.40324        -0.357918     -0.641142     -0.293429
O      13.36034      3.87913      2.55213        -0.148333     -0.747987      0.135345
O      13.41071      3.82325     15.36667        -0.664571     -0.272176     -0.384689
O      13.30185      0.00490      2.49143        -0.543169      0.124487      0.253247
O      13.21836     15.18768     15.31534        -0.064002     -0.379902     -0.094762
O       1.95789      3.74647      6.80053        -0.242727      0.225333      0.329132
O       1.90705      0.01684      7.02512        -0.360459     -1.060205     -0.519763
O      13.32727      3.75855      6.79484         0.024153     -0.074218      0.373227
O      13.41276      0.03514      6.89844        -0.366066     -1.106100     -0.071049
O       1.88645      3.86479     11.02796        -0.048812     -0.836935      0.329535
O       1.77642      0.04501     11.16797         0.806037     -0.639022     -0.286413
O      13.25374      3.76223     10.93021         0.303405      0.988376      0.288136
O      13.10773      0.02383     11.09400         1.084635      0.024699     -0.009413
O       1.90915      7.65487      2.75915        -0.735603     -0.777272     -0.511733
O       1.94977      7.57345     15.34018        -0.033372      0.235242      0.048025
O      13.31479      7.57636      2.40796        -0.258930      0.801146      0.605532
O      13.19930      7.59324     15.39016         0.483598      0.719514     -0.253033
O       1.83351      7.54557      6.85832        -0.193742      0.397265      0.320541
O      13.26348      7.64589      6.69708        -0.392671     -0.192003      0.792405
O       1.90785      7.62564     11.08040         0.142972     -0.869567      0.303035
O      13.31530      7.54336     11.16328        -0.212532     -0.160610     -0.660246
O       1.76324     11.42634      2.81968         0.012129     -0.091877     -0.619289
O       1.85977     11.38647     15.30952        -0.150147     -0.144549      0.302870
O      13.34496     11.46476      2.54730        -0.482739     -0.784344      0.447248
O      13.36438     11.44043     15.18023        -0.382362     -1.044242      0.520809
O       1.90553     11.37009      6.84669         0.159752      0.145451      0.341547
O      13.19694     11.48410      6.94415         0.019249     -0.892484     -0.332034
O       1.78697     11.39953     11.07861         0.662181     -1.361077      0.062432
O      13.28127     11.30946     11.05194        -0.348865      0.817341      0.172594
O       5.67852      3.76226      2.55857        -0.033869      0.949129     -0.032641
O       5.84451      3.79179     15.24715        -0.600768     -0.685895      0.798923
O       5.67896     15.14987      2.65648         0.544070      0.804580      0.139503
O       5.63447     15.17122     15.31357         0.155659     -0.327010      0.219065
O       5.79257      3.76435      6.78388        -0.366069     -1.416922     -0.228187
O       5.70657     15.19885      6.82087         0.028861      0.211085     -0.616301
O       5.67332      3.80137     10.99652         0.365810     -0.997301      0.439014
O       5.58348     15.15879     11.06294         0.532151      1.218520      0.166207
O       5.41478      7.59453      2.55152         0.813581     -0.645427     -0.285437
O       5.65475      7.53049     15.19346        -0.118580      1.371955      0.431166
O       5.69049      7.49910      6.89062        -0.011105      0.486137      0.036399
O       5.61504      7.51828     11.13276         0.406011      1.324438      0.367652
O       5.63026     11.34955      2.56210         0.087458      0.990974      0.233040
O       5.58909     11.39242     15.37403         0.641326      0.192911      0.253741
O       5.70859     11.30271      6.89592        -1.003025      1.385951     -0.414213
O       5.73668     11.36306     10.78134         0.251176      0.033653      0.578705
O       9.42057      3.86713      2.56582         0.148529     -0.365544     -0.070173
O       9.40672      3.82988     15.15166        -0.124955     -0.754046      0.720571
O       9.51971      0.07221      2.25846         0.053132     -1.689631      1.075922
O       9.62565     15.18342     15.21667        -0.560119     -0.572362      0.444415
O       9.49343      3.78923      6.66194         0.220965     -0.471616     -0.384678
O       9.47342     15.11860      6.90567        -0.140386      1.279095     -0.189430
O       9.60193      3.77172     11.08535        -0.814045      0.263710      0.726463
O       9.54241      0.01834     11.00026        -0.367373     -0.294053     -0.004789
O       9.48621      7.60452      2.46447        -0.012316     -1.176075      0.033536
O       9.40962      7.68028     15.42850         0.062491     -1.455171     -0.073784
O       9.49542      7.54110      6.88256         0.396975      0.698733      0.230176
O       9.50765      7.54669     11.05232        -0.170267      0.158835     -0.140404
O       9.47877     11.30539      2.76235        -0.472733      0.572127     -0.466844
O       9.40547     11.35143     15.28411         0.163691      0.949784     -0.339284
O       9.42959     11.45727      6.70991         0.135608     -0.929318      0.388389
O       9.31642     11.32933     11.10129         0.959119      0.815190     -0.095806
