  # total energy = -7879.15093029 
CRSYTAL
PRIMVEC
    15.6000000000000000    0.0000000000000000    0.0000000000000000
     0.0000000000000000   15.6000000000000000    0.0000000000000000
     0.0000000000000000    0.0000000000000000    17.640000000000000
PRESSURE
-3.53866 -3.25841 -5.6026 -0.001172 -0.350472 -0.016553
PRIMCOORD
320 1
Pb       3.89185      3.92051      4.27105        -0.087727      0.092762     -0.055899
Pb       3.77260      3.73001     17.54550         0.708210      0.276800      0.779917
Pb       4.08707      0.09696      4.36217        -0.509653     -0.095599      0.709829
Pb       3.98915     15.49732     17.47877        -0.081023      0.427796      0.033069
Pb       0.01316      3.89184      4.29848        -0.187380     -0.345473      0.496276
Pb      15.50256      3.81199     17.58885        -0.177598      0.126247     -0.025456
Pb      15.58821     15.56464      4.30623         0.224856      0.538922      0.994529
Pb       0.20568     15.49972     17.53392        -0.422181      0.326396      0.327631
Pb       3.94527      3.80688      8.70216        -0.100243      0.082810      0.740688
Pb       3.86132     15.56897      8.74306         0.112266     -0.192715      0.232826
Pb       0.02654      3.78549      8.64384        -0.398915      0.512735      0.991340
Pb       0.05458     15.52712      8.96305         0.318542      0.016964     -0.300655
Pb       3.70434      4.10687     13.06335         0.776973     -0.560698      1.300431
Pb       3.82428      0.02002     13.18024         0.299566     -0.514105     -0.014228
Pb      15.49232      3.82544     13.20558         0.233998      0.105691      0.026065
Pb       0.02372      0.00683     13.11013        -0.364680     -0.187869      0.644361
Pb       3.81489      7.78222      4.16957         0.136448     -0.383679      1.099457
Pb       3.71729      7.79455     17.55366         0.490938     -0.252536      0.303405
Pb      15.48104      7.73113      4.43098        -0.231336      0.208654      0.034103
Pb      15.44067      7.76508      0.02917         0.334171     -0.044883     -0.160401
Pb       3.85387      7.76470      8.73461         0.106355      0.046527      0.114205
Pb       0.07493      7.74814      8.66239        -0.545609     -0.038611      0.443474
Pb       3.87108      7.85429     13.16697         0.043501      0.076889      0.473275
Pb      15.35054      7.83579     13.17723         0.694575     -0.162387      0.459039
Pb       3.88643     11.66391      4.28102         0.597737     -0.170447      0.726052
Pb       3.93394     11.63175     17.55272        -0.335577      0.158424      0.560496
Pb      15.56064     11.59746      4.39293         0.231965      0.160286      0.896976
Pb      15.57820     11.56838      0.13031         0.033727      0.176277     -0.065700
Pb       3.89961     11.69710      8.62209         0.459581     -0.007795      1.001730
Pb       0.02896     11.58828      8.78442        -0.519997      0.327645      0.639900
Pb       3.91271     11.62791     13.23225         0.298420     -0.178255     -0.590149
Pb       0.11837     11.59851     13.21558        -0.146558      0.184059     -0.083481
Pb       7.83322      4.07857      4.28128        -0.396219     -0.502716      0.574945
Pb       7.81041      3.79858     17.46244         0.108971     -0.077611      0.975952
Pb       7.99546      0.00019      4.30889        -0.626338      0.539258      0.287158
Pb       7.90368     15.40517     17.61682        -0.258648      0.847709     -0.153052
Pb       8.02001      3.89881      8.65817        -0.909627     -0.263488      1.221871
Pb       7.75706     15.50134      8.64258        -0.556066      0.430011      0.879956
Pb       7.64075      3.85075     12.99373        -0.514470      0.473329      1.407052
Pb       7.68811     15.44331     13.19626         0.244960      0.415258      0.050799
Pb       7.66163      7.87366      4.29860         0.298811     -0.331590      0.844382
Pb       7.82692      7.79912     17.51054        -0.318520     -0.218129      0.590028
Pb       7.86784      7.78540      8.75043        -0.124660      0.223164      0.413454
Pb       7.81979      7.67805     13.11949        -0.738539     -0.102623      0.606442
Pb       7.75295     11.75498      4.32889        -0.814833     -0.142146      0.353425
Pb       7.75584     11.75861      0.02343        -0.172393     -0.768284     -0.254678
Pb       7.72608     11.65115      8.85121        -0.355251     -0.182001      0.066119
Pb       7.81092     11.51776     13.20918        -0.166204      0.248655      0.181614
Pb      11.54612      3.99752      4.33745         0.450036     -0.376795      0.314948
Pb      11.69684      4.00606     17.47564        -0.129887     -0.746263      0.452950
Pb      11.78266      0.03646      4.35290        -0.361447      0.395581      0.666056
Pb      11.75122      0.01516     17.51235         0.210985      0.391457      0.286009
Pb      11.71353      3.91559      8.75982         0.102508     -0.640345      0.325743
Pb      11.61605     15.51472      8.80739        -0.530757      0.885421      0.804720
Pb      11.56327      3.91672     13.17597         0.160476     -0.491209      1.066065
Pb      11.74268     15.56611     13.19613        -0.266685     -0.087063      0.024042
Pb      11.64228      7.83608      4.32535         0.060381     -0.251886      0.570238
Pb      11.75687      7.89297     17.58801        -0.310398     -0.113652      0.632677
Pb      11.79960      7.74269      8.76596        -0.082325      0.004769      0.446103
Pb      11.67693      7.85546     13.18489         0.001295     -0.056937      0.852970
Pb      11.75831     11.88386      4.49689        -0.286341     -0.387993      0.331979
Pb      11.63216     11.82186      0.03863         0.525499     -0.661090      0.640423
Pb      11.61256     11.73329      8.70171        -0.043840     -0.298726      1.458651
Pb      11.83009     11.71241     13.14985        -0.573870     -0.308841      0.702628
Ti       1.94182      1.88503      2.35270         0.226816      0.486164     -0.986056
Ti       1.97035      1.91639     15.53037        -0.472827     -0.056971     -0.179175
Ti       1.94507     13.60713      2.53942         0.261649      0.308820     -1.075086
Ti       1.93026     13.59945     15.60908         0.201804     -0.433490     -2.285696
Ti      13.59493      1.99121      2.35387        -0.026458      0.508223     -0.709182
Ti      13.70369      1.85473     15.60747        -0.550847      0.844423      0.227102
Ti      13.68477     13.67488      2.48161        -0.519363     -0.006235     -1.827804
Ti      13.68253     13.55837     15.74489         0.469438      0.705357     -0.764958
Ti       1.89159      1.94961      6.77547         0.328207     -0.629382     -1.976572
Ti       1.81017     13.56912      6.91823         0.399748      1.504048     -2.298989
Ti      13.64720      1.82451      6.83617        -1.053843      1.385397     -1.299792
Ti      13.53512     13.67145      6.99327         1.031754      0.139445     -1.801280
Ti       1.97449      1.91364     11.31493        -0.537900      0.430948     -1.627645
Ti       1.92988     13.57041     11.25799         0.658143     -0.172046     -0.437532
Ti      13.55183      1.96437     11.26573         0.646970     -0.258224     -1.121356
Ti      13.69685     13.60697     11.24197        -0.452003      0.051345     -0.745290
Ti       1.75333      5.86290      2.40904         0.963870     -1.296545     -1.048118
Ti       1.85970      5.73160     15.71867         0.113137      1.872050     -1.179555
Ti      13.55563      5.83069      2.43457        -0.219266      0.746281     -1.068872
Ti      13.54584      5.88362     15.60343         1.306961     -0.534948     -1.399340
Ti       1.98257      5.81060      6.85972        -0.327999     -0.101718     -1.867694
Ti      13.60538      5.82559      6.85767         0.932730     -0.286991     -1.676318
Ti       1.83606      5.90602     11.18037         0.113055      0.182100     -0.758921
Ti      13.59985      5.77097     11.34030         0.183327      0.885413     -1.292766
Ti       1.83551      9.70190      2.46401        -0.377981      0.348666     -1.155371
Ti       1.85454      9.72600     15.64637         0.108587     -0.306908     -0.085586
Ti      13.48415      9.81861      2.59002         0.851933     -0.826804     -0.954194
Ti      13.63797      9.78958     15.65715        -0.289174      0.024186     -1.494666
Ti       1.89844      9.75339      6.82310         0.551877     -0.632245     -2.297949
Ti      13.52031      9.84787      6.80062         1.036451     -1.829438     -1.139414
Ti       1.83224      9.73644     11.12212         1.621779     -0.292263      1.162977
Ti      13.57931      9.74857     11.17203         0.202831     -0.228712     -0.013553
Ti       5.89896      1.92866      2.36880         0.027419      0.684657     -1.217241
Ti       5.88707      1.93723     15.49666         0.148392     -0.234383     -0.351170
Ti       5.79190     13.71310      2.39333         0.568001     -0.841797      0.541316
Ti       5.83098     13.60806     15.54596        -0.015105     -0.141717     -1.908292
Ti       5.77249      1.93484      6.80552         1.226635     -0.808681     -1.599482
Ti       5.75053     13.57938      6.74919        -0.068122      0.162055     -0.674572
Ti       5.76977      1.88961     11.19913         0.436279      0.074580     -1.408224
Ti       5.85737     13.59401     11.26942        -0.474690     -0.599499     -1.589001
Ti       5.76715      5.84604      2.33854         0.646935     -0.315774     -1.740053
Ti       5.79504      5.73499     15.78484        -0.547372      1.313877     -2.617938
Ti       5.84129      5.75025      6.84406        -0.288634      0.445526     -1.708172
Ti       5.74140      5.81356     11.13609         0.821791     -0.572207     -0.221336
Ti       5.80656      9.69497      2.36095        -0.147061      1.256031     -1.951519
Ti       5.81961      9.69208     15.75199         0.033834     -0.794657     -1.249735
Ti       5.82561      9.61800      6.81967         0.296326      1.099674     -1.936679
Ti       5.85622      9.65048     11.27459        -1.239127      0.856022     -1.588452
Ti       9.75200      2.03982      2.35315         0.460580     -0.104321     -1.217076
Ti       9.73533      1.86332     15.62423         0.093539      0.488987     -1.341469
Ti       9.76261     13.67106      2.49421         0.293359      0.196398     -1.437188
Ti       9.75424     13.54337     15.73458         0.373913      0.474469     -2.279778
Ti       9.71145      1.94691      6.80227        -0.071920     -0.173096     -1.199691
Ti       9.63167     13.58134      6.84669        -0.241235      0.278433     -1.637046
Ti       9.65244      1.94743     11.35472        -0.261882     -0.881627     -2.207699
Ti       9.76654     13.59084     11.36904        -0.565849      0.202362     -1.749479
Ti       9.70901      6.00034      2.43950        -0.505267     -0.979501     -2.079899
Ti       9.69734      5.85600     15.65442        -0.071203     -0.350005      0.262505
Ti       9.78723      5.91663      6.79711        -0.492425     -0.536685     -2.289079
Ti       9.76682      5.81078     11.34971        -0.617073      0.586760     -2.420987
Ti       9.62097      9.86887      2.52193         0.790660     -0.905754     -1.360786
Ti       9.80420      9.77588     15.74720        -0.381269     -0.564828     -1.759527
Ti       9.76458      9.75545      6.75606        -1.363551     -0.605469     -0.813979
Ti       9.74191      9.68881     11.21852        -0.655188      0.437912     -1.262178
O       1.99656      1.75497      0.51433        -0.124727      0.202486      1.796548
O       1.97258      1.94553     13.74713        -0.212520      0.107560      0.331098
O       1.83678     13.60280      0.74447         0.233752      0.237518      0.793945
O       1.88217     13.60563     13.77386         0.108199     -0.173518      1.086790
O      13.60219      1.99576      0.58017         0.000844     -0.178477      0.580244
O      13.74459      1.95182     13.86237        -0.274954     -0.249982     -0.597308
O      13.66741     13.64470      0.66012         0.223646      0.117109      1.693966
O      13.66951     13.53652     13.97067        -0.141123     -0.091097      0.531713
O       1.82772      2.12558      4.96305         0.378912     -0.721221      1.418773
O       1.81613     13.63548      5.10736        -0.005998     -0.405441      1.474037
O      13.48518      1.88212      5.02773         0.596126     -0.026370      2.089025
O      13.45851     13.74354      5.20113         0.186030     -0.134842      0.726614
O       2.00007      1.77250      9.52166        -0.324297      0.264861      0.453003
O       1.81125     13.58503      9.46865         0.211666      0.350967      0.470933
O      13.54921      2.08006      9.49554         0.156218     -0.497180      0.694118
O      13.59122     13.58517      9.47617        -0.026504      0.125102     -0.271353
O       1.69390      5.84486      0.66592         0.174123      0.262694     -0.001337
O       1.95586      5.93295     13.95893        -0.255921     -0.694825      0.338939
O      13.49986      6.11672      0.65663         0.276547     -0.764319      0.299031
O      13.59972      5.86558     13.79806         0.016947     -0.027547      0.989390
O       1.93326      5.73815      5.05212        -0.099721      0.201719      0.618223
O      13.63846      5.73599      5.07188        -0.050970      0.315082      0.552341
O       1.99074      5.89838      9.39909        -0.321649     -0.099818      0.448085
O      13.55154      5.88505      9.54738        -0.147079     -0.174349      0.556278
O       1.78619      9.81172      0.66087         0.132687     -0.080593      1.704919
O       1.80132      9.68774     13.85520         0.120586      0.294375      0.873638
O      13.57071      9.76674      0.81669        -0.007285      0.270352      0.205882
O      13.57032      9.66329     13.81523         0.447904      0.760208      1.130936
O       1.87936      9.68237      4.98028        -0.083357      0.144842      1.214104
O      13.60167      9.80477      5.00802        -0.059535     -0.350775      0.746572
O       1.95673      9.66475      9.40723        -0.179495      0.354974     -1.298246
O      13.53204      9.74331      9.42020         0.090797     -0.114992      0.136460
O       5.88859      1.94774      0.59423        -0.395592     -0.467660      0.751507
O       5.94693      1.94159     13.73088        -0.400622     -0.100179      0.759915
O       5.79202     13.86453      0.64713         0.235413     -0.166705     -0.781403
O       5.88206     13.54333     13.70675        -0.006624      0.087635      1.645970
O       5.78485      1.79793      4.98490         0.031307      0.587949      1.149580
O       5.76535     13.60495      4.96239         0.102707     -0.081415      0.590277
O       5.81275      1.88612      9.39684        -0.352508     -0.136213      0.601815
O       5.81791     13.61957      9.43248         0.109844     -0.277361      1.267794
O       5.84630      5.90380      0.53759        -0.160790     -0.301405      1.124986
O       5.77975      5.81428     13.93742         0.060774     -0.114517      1.299385
O       5.76051      5.82105      5.03502         0.353901     -0.260580      1.039938
O       5.75217      5.63342      9.37234        -0.418477      0.880577      0.666226
O       5.71823      9.72791      0.54914         0.550051      0.068694      0.968984
O       5.66635      9.63751     13.95631         0.166801      0.332081      0.726896
O       6.01171      9.87359      5.00876        -0.526590     -0.957019      1.346391
O       5.86402      9.65863      9.44962         0.047765     -0.068643      0.496274
O       9.77180      2.02753      0.55744         0.192113     -0.415972      0.834350
O       9.59988      1.91965     13.85175         0.261611     -0.078556     -0.021106
O       9.82196     13.65719      0.65997        -0.389456     -0.045656      0.677968
O       9.76326     13.49313     13.94641         0.165912      0.049662      0.485318
O       9.65402      1.86249      5.01821         0.322000      0.300890      0.628855
O       9.73809     13.46481      5.01201        -0.332311      0.796555      1.917832
O       9.68345      1.99470      9.52093        -0.105724     -0.109061      1.529128
O       9.76219     13.62263      9.56851         0.167340     -0.145629      0.449322
O       9.73489      5.92360      0.62706         0.053485     -0.045473      0.952881
O       9.71204      5.80213     13.92804        -0.160556      0.118576     -0.741191
O       9.73473      5.84185      4.92448        -0.044299      0.126392      1.869714
O       9.83509      5.88586      9.55033         0.161467     -0.195090      0.445404
O       9.72013      9.73317      0.73612        -0.056229      0.645903      0.533831
O       9.80595      9.84503     13.97602        -0.118466     -0.378356      0.696992
O       9.58258      9.62804      4.96620         0.552934      0.588521      1.057537
O       9.58765      9.71292      9.41748         0.566110     -0.118419      1.160728
O       3.89051      1.99650      2.75297        -0.127913     -0.736462     -0.004441
O       3.82617      1.98839     15.91846         1.077987     -0.364106      0.022353
O       3.95603     13.49423      2.81050        -1.484946      0.934407     -0.100388
O       3.93631     13.59251     15.95712         0.040716      0.644321      0.153535
O      15.51744      1.94280      2.75797         0.760967     -0.220431     -0.138689
O       0.01799      2.03189     15.99152         0.455596     -0.285355      0.021569
O      15.55110     13.60847      3.03793        -0.256614      0.243547     -0.973919
O       0.09627     13.60861     16.02724        -0.526970      0.044269      0.356405
O       3.88565      1.78439      7.14786        -0.479946      0.323392      0.061941
O       3.79111     13.64970      7.18375        -0.042916     -0.212076      0.164677
O       0.03321      1.93697      7.20479        -1.353153     -0.223347      0.001254
O      15.46001     13.59000      7.39232         0.017573     -0.047815     -0.199936
O       3.88842      1.87347     11.55872        -0.404051      0.038739      0.483205
O       3.90699     13.56947     11.59408        -0.844071      0.200207      0.229660
O      15.53329      1.96145     11.63988         0.060395     -0.155786     -0.008797
O      15.58753     13.64366     11.58304         0.432931     -0.267567      0.317585
O       3.83975      5.87753      2.72545        -0.051762      0.169726      0.085239
O       3.82091      5.80023     16.00586        -0.111077      0.079325      0.792140
O      15.47024      5.76496      2.82101         0.854038      0.627903      0.150793
O      15.49984      5.89106     15.99998        -0.007508     -0.103396      0.405889
O       3.85986      5.80018      7.15453        -0.051073     -0.192601      0.600179
O       0.00661      5.82079      7.20973         0.096392      0.093853      0.233054
O       3.78898      5.89584     11.69868         0.093569      0.384788     -0.966720
O      15.53469      5.77205     11.72186         0.216852      0.511713     -0.440395
O       3.89425      9.66469      2.71955        -0.971546      0.185239      0.238521
O       3.79210      9.73419     16.25139         0.153690     -0.092239     -1.003485
O      15.50915      9.73131      2.87692         0.800197      0.191390      0.014297
O      15.53516      9.69845     16.14032         0.201598      1.142499     -0.213669
O       3.90273      9.83862      7.02303        -0.253086     -0.677667      0.638917
O       0.03392      9.75198      7.26566        -1.049421     -0.224194     -0.291467
O       3.89131      9.83071     11.62562        -0.395362     -1.035195      0.136235
O      15.55970      9.71237     11.61595        -0.920066      0.358556     -0.325062
O       7.86748      1.82060      2.58826        -0.622189      0.188568      0.784812
O       7.75630      1.89374     16.04873         0.169495      0.004240     -0.219316
O       7.73929     13.73247      2.72860         1.245423     -0.279376      0.114667
O       7.87004     13.53718     16.04124        -0.879107      0.238445      0.425771
O       7.76644      2.05167      7.19837        -0.026775     -0.651911     -0.032635
O       7.69287     13.51071      7.24071         1.515266      0.081791     -0.355392
O       7.65099      1.99297     11.62858         0.858935     -0.759956     -0.224266
O       7.82342     13.51779     11.55818        -0.169440      0.319838      0.633012
O       7.72036      5.78228      2.82871         0.365163      0.873615     -0.308227
O       7.76858      5.77638     16.08840         0.819206      0.261064     -0.277291
O       7.76303      5.91027      7.26265         0.734959     -0.522252     -0.508353
O       7.75783      5.86715     11.46172        -0.508447      0.045243      0.593420
O       7.72594      9.80530      2.77664         0.413893      0.086027      0.045793
O       7.72248      9.79436     15.97440         0.693166     -0.074276      0.632421
O       7.82588      9.72049      7.20884        -0.439126     -0.136956      0.150306
O       7.74051      9.65589     11.66142         0.987313     -0.192800      0.252542
O      11.69653      2.09816      2.81588        -0.181222     -0.545610     -0.129508
O      11.73527      1.94775     15.91762         0.049026     -0.826457      0.232534
O      11.67544     13.53376      2.90904         0.476190      0.748565     -0.396516
O      11.76572     13.62031     16.17975        -0.485628      0.095303     -0.467880
O      11.61207      1.91708      7.33889         0.503843      0.043450     -0.524450
O      11.60629     13.67392      7.36956        -0.389281     -0.347259     -0.540455
O      11.61450      1.89038     11.63919         0.224394      0.243061      0.403011
O      11.78369     13.61552     11.69466        -1.133990      0.047420      0.238970
O      11.64498      5.83532      2.79424        -0.236141      0.373881      0.291508
O      11.69345      5.92665     15.95166        -0.326185     -0.284218      0.351369
O      11.69843      5.79397      7.17289        -0.730087      0.332519      0.219786
O      11.68191      5.79005     11.83797        -0.522994     -0.060254     -0.639831
O      11.65266      9.71419      2.97402        -0.857914      0.475047     -0.308119
O      11.76358      9.86587     16.08475        -0.677429     -0.075459      0.213433
O      11.64888      9.75386      7.23120         0.104270     -0.201270     -0.361584
O      11.60589      9.65617     11.67700         0.692238      0.612969     -0.682484
O       1.99357      3.82681      2.59485        -0.685538      0.206050      0.567626
O       1.92578      3.89330     16.20616        -0.605477     -0.511838     -0.969655
O       1.93627     15.51495      2.91883        -0.029681      0.687456     -0.495592
O       2.00202     15.59970     15.86582        -0.235144     -0.200127      0.419793
O      13.64263      3.95920      2.73302        -0.281351     -0.671447      0.006226
O      13.62687      3.91834     16.04177        -0.038843      0.568988     -0.155792
O      13.54362      0.02979      2.87084         0.370450     -0.593321     -0.604842
O      13.81015     15.59791     16.09206        -0.668441     -0.456232     -0.189407
O       1.95280      3.83238      7.19002         0.129239     -0.002339      0.286780
O       1.74876     15.54148      7.25115         0.453978      0.140265      0.180291
O      13.66635      3.90333      7.30607        -0.228962     -0.719758     -0.192522
O      13.51823     15.59869      7.31380         0.565288      0.032155      0.059106
O       1.88099      3.91200     11.58853         0.148072      0.082005     -0.051083
O       1.91253      0.00657     11.71298         0.151404     -0.684163     -0.291655
O      13.57817      3.88613     11.65834        -0.140745     -0.553740      0.318662
O      13.65206     15.51528     11.63033        -0.197269      0.958995      0.090771
O       1.78237      7.72941      2.78616         0.293704      0.990765      0.153363
O       1.82169      7.87657     16.16201         0.340038     -0.704637     -0.244353
O      13.57754      7.81867      2.87788         0.184429     -0.298343      0.555284
O      13.60694      7.95524     15.94831        -0.095041     -1.646649      0.583399
O       1.96104      7.81255      7.18796         0.054018     -0.297058      0.146709
O      13.60655      7.76784      7.15596         0.050255      0.310289      0.289923
O       1.85057      7.87250     11.41635         0.123425     -1.507821      0.659951
O      13.50974      7.77892     11.66478         0.459094      0.291754     -0.268883
O       1.88710     11.71481      2.97861        -0.036700     -0.927540     -0.690665
O       2.03244     11.72534     15.99500        -0.592808     -0.618089      0.129186
O      13.62097     11.76742      2.98662        -0.044108     -0.166002     -0.484350
O      13.69192     11.73533     16.26714         0.083911     -0.513800     -0.596794
O       1.84189     11.63431      7.33849         0.305379      0.551871     -0.522657
O      13.57412     11.63704      7.08120        -0.166318      1.343193      0.799353
O       1.97888     11.64035     11.58118        -0.877139      0.766877      0.281081
O      13.61752     11.65916     11.59992         0.175741     -0.502799      0.018361
O       5.84249      3.94675      2.72876        -0.060337     -0.859336      0.200249
O       5.81293      3.82866     16.01953         0.078921     -0.386519      0.055872
O       5.83182      0.03069      2.86706        -0.149645     -0.113332     -0.459455
O       5.94275     15.53828     15.77579        -0.549505      0.113463      0.700000
O       5.78188      3.83269      7.18798        -0.157065     -0.087347     -0.173661
O       5.88534     15.47733      7.10835        -0.185669      0.941182      0.391523
O       5.70611      3.88186     11.53445        -0.053480      0.505157      0.097260
O       5.77591     15.48771     11.60340         0.414867      0.769201      0.223580
O       5.92368      7.80702      2.75387        -0.612051     -0.084072      0.016268
O       5.83611      7.74886     16.04394        -0.229851      0.450431      0.331368
O       5.72141      7.65825      7.15856         0.340057      1.667440      0.219655
O       5.82533      7.74667     11.72386        -0.358588     -0.439850     -0.522462
O       5.84804     11.69647      2.67078         0.119125     -0.130050      0.228181
O       5.80872     11.72490     16.03836         0.150612     -0.120125      0.337619
O       5.73947     11.68661      7.15248         0.553687     -0.482282      0.352928
O       5.82513     11.56806     11.68254         0.430825      0.612024      0.037181
O       9.68618      3.94714      2.78756         0.044295     -0.532347      0.080739
O       9.84350      3.75846     15.96160        -0.475669      1.684365      0.315399
O       9.89441     15.59975      2.83255        -0.459537     -0.314113     -0.256638
O       9.75208     15.52328     15.89859         0.118961     -0.183149      0.916187
O       9.73642      3.92030      7.11725         0.246550      0.397976      0.068538
O       9.60391     15.59881      7.18661         0.405693     -1.054169     -0.115150
O       9.55539      3.90248     11.64802         1.268322     -0.465314      0.162099
O       9.67460     15.56135     11.72751         0.238289     -0.124800      0.071583
O       9.57532      7.83128      2.72460         0.557451      0.341033      0.622200
O       9.81138      7.79003     16.08694        -0.517549      0.172254     -0.308888
O       9.75642      7.78128      7.16273         0.215318      0.050881      0.167867
O       9.76337      7.72770     11.66063        -0.176050      0.624262      0.205226
O       9.78087     11.74307      2.93324        -0.547504     -0.203634     -0.549643
O       9.74085     11.61752     16.12701         0.084127      1.101459      0.706304
O       9.77056     11.65595      7.27644        -0.328876      0.548714     -0.481976
O       9.67117     11.59389     11.66181         0.586700      0.233575     -0.086914
