  # total energy = -7863.16510016 
CRSYTAL
PRIMVEC
    15.010000000000000    0.0000000000000000    0.0000000000000000
     0.0000000000000000   15.010000000000000    0.0000000000000000
     0.0000000000000000    0.0000000000000000    16.400000000000000
PRESSURE
16.6085 16.8865 8.23518 -0.155668 -0.227339 -0.039634
PRIMCOORD
320 1
Pb       3.68739      3.62890      4.11718        -0.079036      0.250931     -0.054234
Pb       3.61786      3.72384     16.38483         0.777663      0.299419     -0.918049
Pb       3.78818     14.93803      4.15843         0.064989     -0.487191     -0.581224
Pb       3.85454     14.98268      0.10113        -0.273763     -0.321353     -0.162633
Pb      14.95804      3.82956      4.18400        -0.190871     -0.316563      0.211017
Pb      14.89084      3.63902      0.14473         0.445608      0.498529     -0.422948
Pb      14.87923      0.02647      4.28033         0.633616     -0.044242     -0.111121
Pb       0.06263     14.99457      0.15380        -0.496748     -0.393971     -0.701531
Pb       3.50058      3.72358      8.25760         0.983823      0.336542     -0.671377
Pb       3.71705      0.18758      8.24621         0.040005     -0.745952     -0.750252
Pb      14.80714      3.74418      8.28135         0.475948     -0.082009     -0.550706
Pb      14.87276      0.01519      8.21584        -0.016851      0.348571     -0.040281
Pb       3.74967      3.64594     12.40119        -0.645927      0.524877      0.778326
Pb       3.62615     14.98812     12.32076         0.595494     -0.957645      0.290206
Pb      14.89373      3.79715     12.36751         0.255639      0.039191     -0.191081
Pb      14.97741     14.98968     12.32974        -0.302721     -0.110763      0.100368
Pb       3.88598      7.54279      4.18909         0.274974     -0.460191      0.036427
Pb       3.76589      7.58064      0.05159         0.073808     -0.208974     -0.702795
Pb       0.18396      7.54212      4.19179        -0.765218     -0.600895     -0.360042
Pb       0.04770      7.41258      0.08277         0.087744      0.957506     -0.649979
Pb       3.71223      7.53801      8.34603         0.566428     -0.865891     -1.067418
Pb       0.06828      7.55129      8.31106        -0.755301     -0.388166     -0.182346
Pb       3.63341      7.36868     12.34998         0.183205      0.316867      0.183966
Pb      14.88449      7.49237     12.29173         0.700359      0.382620      0.260538
Pb       3.90057     11.04333      4.19268        -0.596280      0.793450      0.267026
Pb       3.76929     11.21368      0.16939        -0.138739      0.172017     -0.630140
Pb       0.13526     11.12488      4.17723        -0.168631      0.519381     -0.055850
Pb       0.10402     11.27256      0.16852        -0.365539     -0.716247     -0.822196
Pb       3.72338     11.29216      8.26520         0.056661      0.383326     -0.610487
Pb       0.09161     11.28040      8.18976        -0.338105     -0.253737     -0.395705
Pb       3.72184     11.16071     12.31381         0.268778      0.661922     -0.620519
Pb       0.00946     11.25591     12.29453         0.322448     -0.326643      0.338584
Pb       7.40265      3.90108      4.04605         0.545180     -0.559352      0.048005
Pb       7.43881      3.69237      0.09888         0.749019      0.096870     -1.005442
Pb       7.53203     14.90052      4.09770        -0.561777      0.266496     -0.089235
Pb       7.53522     14.86070      0.04330        -0.172753      0.949827      0.051994
Pb       7.40728      3.77638      8.29737        -0.208377     -0.197465     -0.288520
Pb       7.39859      0.10136      8.27529         0.562345      0.016434     -0.844678
Pb       7.32628      3.79862     12.40562         0.454091     -0.686873      0.166731
Pb       7.42400      0.01639     12.22933        -0.095750     -0.220006      0.204744
Pb       7.66596      7.43093      4.12334        -0.983545      0.148658      0.371519
Pb       7.51640      7.39445     16.36216        -0.078055      0.443409     -0.245491
Pb       7.60927      7.38013      8.26784        -0.818454      0.727962     -0.223914
Pb       7.45353      7.60252     12.24664        -0.179049      0.243791      0.539260
Pb       7.61014     11.06182      4.17655        -0.579125      0.890339      0.154826
Pb       7.46117     11.26469      0.00563         0.235770     -0.188790     -0.711623
Pb       7.62280     11.29534      8.18757        -0.303414     -0.284280      0.350882
Pb       7.49152     11.36041     12.19568        -0.361368     -0.551509      0.127244
Pb      11.22461      3.79227      4.18447        -0.018903      0.257517     -0.023761
Pb      11.25484      3.77342      0.10977        -0.402690     -0.335276     -0.592258
Pb      11.24363     14.89630      4.06692         0.045673      0.254508      1.256497
Pb      11.34249     14.97055      0.04627        -0.280672      0.168302     -0.700331
Pb      11.19085      3.68612      8.39590         0.019497     -0.289872     -0.479119
Pb      11.18777      0.01098      8.25165        -0.310379      0.319225     -0.691770
Pb      11.10158      3.75068     12.33881         0.431265     -0.526062      0.013222
Pb      11.17493     14.90492     12.43655         0.212229      0.106801     -0.201910
Pb      11.38594      7.50188      4.15571        -0.168116     -0.247645      0.129525
Pb      11.23214      7.39883      0.04930        -0.289753      0.939885     -0.485024
Pb      11.28136      7.44919      8.27410         0.156778      0.397126      0.051965
Pb      11.04092      7.45750     12.32944         1.329071      0.853932     -0.102281
Pb      11.25419     11.13575      4.11068         0.677040      0.470106     -0.071311
Pb      11.21688     11.25482      0.03743         0.398621     -0.252596     -0.546500
Pb      11.33915     11.40426      8.26533        -0.039043     -0.350266     -0.393638
Pb      11.13170     11.23209     12.33142         0.424872      0.184401      0.061411
Ti       1.90524      1.84690      1.97776        -0.134451     -0.082933      1.375257
Ti       1.87593      1.82982     14.41667         0.102997     -0.155828     -0.219169
Ti       1.88188     13.11979      2.02930         1.174822     -0.402468      1.157649
Ti       1.93785     13.08402     14.25583        -0.790760     -0.015586      1.415128
Ti      13.11314      1.83589      2.16715         0.148533      0.525082      0.477895
Ti      13.13595      1.82071     14.39877        -1.234730     -0.940545     -0.797353
Ti      13.21815     13.06082      2.08986        -0.832752     -0.271505      0.173209
Ti      13.19460     13.01646     14.33149        -0.388967      0.671732      0.389009
Ti       1.80593      1.85577      6.19928        -0.473530      0.787253     -0.434526
Ti       1.93280     13.19127      6.14037         0.153921     -1.603768     -0.535148
Ti      13.02073      1.96116      6.22448        -0.433673     -0.310814     -0.069951
Ti      13.16994     13.14227      6.19776        -1.224159     -0.332197     -0.610135
Ti       1.76029      1.96049     10.38072        -0.130948     -0.360970     -0.705871
Ti       1.78445     13.19746     10.18982         1.182906     -0.807256      1.474287
Ti      12.99163      1.77062     10.40418         0.125692      0.165182     -0.459419
Ti      13.13154     13.08266     10.28646        -0.866714      1.137792     -0.005844
Ti       1.95687      5.61345      1.99969        -0.839654     -0.610787      0.664756
Ti       1.83816      5.61839     14.41136         0.645809      0.330794     -0.253459
Ti      13.13009      5.63741      2.12756         0.220107     -0.733138      0.823358
Ti      13.14672      5.65469     14.44281        -0.362119      0.149482     -0.355550
Ti       1.89266      5.60268      6.14568         0.119899     -0.125682      0.293696
Ti      13.14418      5.72802      6.28305         0.024397     -0.831953     -0.919713
Ti       1.79119      5.63745     10.20642        -0.292224      0.297621     -0.088435
Ti      13.01620      5.61047     10.31366         0.691828      0.948599     -0.716503
Ti       1.89997      9.30023      2.04984        -0.044041      0.735986     -0.174636
Ti       1.91599      9.36202     14.39081        -1.839802     -0.349130      0.092934
Ti      13.06068      9.30340      2.00334         0.365942      0.754908      0.166954
Ti      13.16494      9.36191     14.27679        -0.075580     -0.164495      0.902908
Ti       1.90940      9.30323      6.20569        -0.418620      1.035585      0.346032
Ti      13.11040      9.38390      6.20009         0.684032      0.349824      0.718756
Ti       1.96312      9.39969     10.20699        -2.544691      0.396057      1.173323
Ti      13.19293      9.42873     10.25970        -0.158747     -1.760356      0.163236
Ti       5.63098      1.92224      1.97498         0.202527     -2.471515      1.308224
Ti       5.63714      1.79106     14.37960        -0.040883      0.997803      0.743264
Ti       5.66022     13.02735      2.07726        -0.481746      1.213316      0.844623
Ti       5.58645     13.11868     14.37935         0.319298     -0.411345     -0.429190
Ti       5.59567      1.87142      6.01403        -0.131313      0.088708      1.278075
Ti       5.66872     13.09320      6.21732        -1.345685      0.798622     -0.846608
Ti       5.44821      1.88014     10.35351         1.579655     -0.766270     -0.119594
Ti       5.56407     13.12960     10.12239        -0.590520     -0.800910      0.990576
Ti       5.55443      5.57582      1.96998         0.878239      1.632853      0.248822
Ti       5.63324      5.65567     14.32606        -0.629501     -0.285804      0.333492
Ti       5.64035      5.58551      6.14188        -0.761185      0.672666      0.647488
Ti       5.52969      5.56277     10.30436         0.584226      0.341949     -0.954464
Ti       5.68311      9.33625      2.04007        -1.066800     -1.010352      1.261483
Ti       5.62193      9.42947     14.27299         0.419702     -0.825190      0.253300
Ti       5.71657      9.34633      6.39164        -0.303618     -0.361828     -0.795018
Ti       5.71793      9.32199     10.24712         0.290339      0.957911      0.598722
Ti       9.39215      1.81461      2.02334        -0.381050      0.388565     -0.825374
Ti       9.38490      1.88016     14.33692        -0.233013     -0.238061      0.673551
Ti       9.40741     13.12994      2.05044        -0.045942      0.086817      0.755587
Ti       9.33421     13.10974     14.31123         1.017626      0.796769      0.238065
Ti       9.26493      2.04304      6.15779         1.208578     -2.873370      0.485780
Ti       9.38766     13.17086      6.14816         0.623252      1.303505      0.900121
Ti       9.21136      1.84701     10.27192         1.394615      0.911464     -0.909065
Ti       9.29995     13.17032     10.18910         1.204597     -0.229054      0.586909
Ti       9.34974      5.66220      2.02461        -0.383581     -0.625535     -0.228767
Ti       9.40894      5.63461     14.21981        -1.209274     -0.139587      1.821743
Ti       9.37279      5.65875      6.29444         0.404382     -0.085875     -1.096435
Ti       9.23779      5.63047     10.35188         0.812554     -0.285464     -0.315018
Ti       9.30240      9.39959      2.08731         1.896579     -0.645823     -1.408702
Ti       9.36531      9.44069     14.35481         0.235328     -0.683279      0.558681
Ti       9.45079      9.40475      6.22185         0.414708     -0.828905      0.175489
Ti       9.46448      9.41001     10.21677        -0.334851     -0.633946      0.046722
O       2.02317      1.91431      0.16234        -0.665045     -0.779907     -0.205072
O       1.77948      1.75658     12.59076         0.389899      0.612856     -0.787327
O       1.73688     13.05614      0.19708         0.355883      0.399821     -0.668537
O       2.01076     13.02678     12.45588        -0.306501      0.224125      0.100206
O      13.14430      1.83789      0.36332        -0.340194      0.204705     -1.528393
O      12.92995      1.70433     12.43487         0.729723      0.475492      0.940968
O      13.13264     12.92753      0.24676         0.441444      1.105730     -0.352789
O      13.08109     13.25509     12.51845         0.017936     -0.778723     -1.183865
O       1.74404      1.87148      4.35493         0.592859      0.212734     -0.283301
O       1.81637     13.17665      4.25978        -0.087859     -0.143235      0.807237
O      13.04727      1.94540      4.34169         0.131744     -0.354989     -0.127837
O      13.13040     13.03813      4.27104         0.310002      0.215106      0.366027
O       1.77416      2.08495      8.50664         0.285551     -1.004798      0.531204
O       1.81159     13.12848      8.44671         0.090828     -0.095115     -1.685114
O      13.12576      1.91379      8.49377         0.202421      0.080580     -0.064651
O      13.11790     13.23490      8.40317         0.139290     -0.702018      0.260178
O       1.86975      5.51288      0.18919        -0.213437      0.440233     -0.061570
O       1.85157      5.80445     12.58602        -0.400338     -0.729894     -0.910042
O      13.18447      5.59644      0.26396        -0.655371     -0.159081     -0.344057
O      13.17239      5.65919     12.61876        -0.064768     -0.380447     -1.006910
O       1.94882      5.69321      4.27793        -0.434796     -0.540273      0.050096
O      13.15917      5.71157      4.36674        -0.286049     -0.275835      0.123963
O       1.86852      5.56454      8.34541         0.090786      0.460092      1.035023
O      13.14826      5.54472      8.43281        -0.689579      0.206398      0.518142
O       1.81225      9.27706      0.21207         0.333665      0.475687      0.582332
O       1.97891      9.38966     12.56380        -0.030712     -0.284008     -0.776785
O      13.00461      9.28937      0.21958         0.195968     -0.089713     -0.308903
O      13.13123      9.38082     12.46044        -0.182931      0.218493      0.284715
O       1.95634      9.25514      4.33415        -0.468233      0.107136     -0.165589
O      12.97581      9.39607      4.37875         0.674543     -0.120686     -0.623347
O       1.76145      9.34294      8.38698         0.230474      0.002917     -0.186199
O      13.13578      9.45521      8.44943         0.164508     -0.292195     -0.271506
O       5.48429      1.89041      0.21088         0.230820     -0.061384     -1.236915
O       5.63047      1.72850     12.57741        -0.112135      0.439415     -1.073403
O       5.68054     13.00329      0.21842        -0.178867     -0.067264      0.202693
O       5.64716     12.96451     12.57840        -0.123898      0.768473     -0.477810
O       5.57011      1.77585      4.24364         0.150370      0.465152     -0.902592
O       5.48299     13.15604      4.32866         0.743601     -0.270628      0.151601
O       5.59942      1.89549      8.54460        -0.229040      0.015000     -0.154193
O       5.58079     13.08421      8.32668        -0.036907      0.201969      0.079681
O       5.53983      5.73334      0.15889         0.240344     -0.586519     -0.077113
O       5.68134      5.71190     12.45448        -0.265631     -0.523624      0.367635
O       5.71526      5.61913      4.30879        -0.220763      0.197137     -0.993637
O       5.61288      5.43860      8.45534         0.179896      0.324644      0.356300
O       5.53529      9.33959      0.28949         0.430006      0.377097     -1.119104
O       5.73012      9.36421     12.41971        -0.685124      0.093919      0.493459
O       5.57814      9.30229      4.44294         0.515621      0.310337     -0.226774
O       5.83527      9.38666      8.44897        -0.937543     -0.041883     -1.328117
O       9.32172      1.71074      0.13553         0.715078      0.292523      0.916129
O       9.48076      1.91888     12.47954        -0.444264     -0.316665     -0.188541
O       9.33117     13.24555      0.24933         0.392669     -0.630105     -0.772735
O       9.29695     13.10260     12.50234         0.122472      0.008993     -0.819148
O       9.34051      1.97523      4.32460         0.124410     -0.249341     -0.862384
O       9.35244     13.16573      4.32076         0.048903     -0.118373     -0.594284
O       9.22230      1.72687      8.34542        -0.310790      1.077520      1.505895
O       9.41907     13.21323      8.41346        -0.281473     -0.603773     -0.602824
O       9.42542      5.64435      0.21586        -0.030729      0.065962     -0.692073
O       9.46188      5.60619     12.40035        -0.876747     -0.090264     -0.188334
O       9.28886      5.61781      4.37326        -0.276668     -0.081312     -0.374130
O       9.29282      5.71275      8.51941         0.204664     -0.667990     -1.264246
O       9.52563      9.43106      0.22241        -0.739738     -0.129085      0.521910
O       9.25742      9.41974     12.53487         0.695798     -0.107376     -0.735951
O       9.38716      9.26342      4.28662        -0.227677      0.657262      0.339150
O       9.38267      9.39238      8.40866         0.112392     -0.249720     -0.505125
O       3.78635      1.53166      2.28499        -0.986697      0.225332      0.226318
O       3.78630      2.14572     14.57227        -0.621372     -0.307891     -0.288257
O       3.74322     13.34934      2.28177        -0.098933      0.192324     -0.426059
O       3.77475     12.77211     14.67551        -0.802610      0.202391     -0.207550
O       0.04727      2.25135      2.08358         0.100598     -0.503741      0.949030
O      14.95186      1.52526     14.61691         1.403309      0.302995      0.174781
O       0.01814     12.73416      2.19037        -0.202706      0.029269      0.712791
O      14.99380     13.45287     14.29260         1.863384     -0.111851      0.992140
O       3.71057      1.86304      6.49486        -0.536259     -0.002592     -0.158679
O       3.75427     13.24649      6.52026        -1.039006     -0.225522     -0.060070
O      14.92370      1.98321      6.36724         0.371119     -0.113789      0.331396
O      14.99500     13.02966      6.44073         0.205825      0.031465     -0.217916
O       3.67004      1.51387     10.66417        -0.380198      1.137008     -0.841827
O       3.71628     13.25318     10.47849         0.206388      0.223307     -0.363964
O      14.98913      2.05128     10.58693        -1.007904      0.933866      0.182491
O      14.98054     12.85828     10.55499         0.200563     -0.033595     -0.108100
O       3.77383      6.00848      2.23382        -0.192235     -0.388670      0.268960
O       3.71335      5.38272     14.42834         0.963457      0.061959      0.274998
O      14.93880      5.20707      2.35263         0.976140      0.849656     -0.824807
O      15.00309      5.96528     14.59675        -1.112850     -0.631249      0.057690
O       3.80274      5.74488      6.35996        -1.716200      0.237891      0.249951
O      14.99922      5.60213      6.35750         0.498318     -0.755405     -0.057962
O       3.72393      5.83984     10.41723        -0.906057      0.282298      0.380847
O      14.98043      5.29354     10.33949        -0.555626     -0.185641      0.907413
O       3.75455      9.04448      2.34149         0.218763     -0.319954     -0.113642
O       3.68992      9.58856     14.68165         1.848097      0.258479     -0.207480
O       0.02102      9.49031      2.26197        -0.900365      0.397458      0.653223
O      15.00363      8.92170     14.52809        -0.764838      0.311795      0.160407
O       3.70371      9.21091      6.51120         0.890920      0.208483      0.248914
O      14.97113      9.61297      6.35534         0.549184     -0.508142     -0.215812
O       3.72041      9.13715     10.29224         1.623867     -0.283911      0.476698
O       0.00789      9.68552     10.58308         0.320713     -0.724660     -0.499122
O       7.48851      2.03438      2.06007        -0.227125      0.560300      0.842922
O       7.48625      1.62833     14.65591         0.660308     -0.148789     -0.341016
O       7.52034     12.73272      2.33401        -0.268894      0.059958      0.022461
O       7.51639     13.26667     14.61482        -0.307749      0.527115      0.127324
O       7.44814      2.00263      6.34175        -1.071372      0.040080      0.251898
O       7.46950     13.06471      6.49609         0.653539     -0.270083     -0.476781
O       7.43212      1.94547     10.54469        -1.227439      0.680054      0.365062
O       7.48907     12.88812     10.38330        -0.565326      0.313937      0.115461
O       7.46571      5.28929      2.08645        -0.233393     -0.149945      0.718800
O       7.52564      5.79481     14.60956        -0.483639      0.199495     -0.366168
O       7.47625      5.49928      6.40184         0.804129     -0.207825      0.568837
O       7.44620      5.13273     10.48684        -0.443687      1.171196     -0.172310
O       7.47765      9.81023      2.19483         0.210651     -0.052011      0.444923
O       7.46520      9.13100     14.62089        -0.479936      0.266874      0.197191
O       7.56782      9.53877      6.38094        -0.111771      0.024534     -0.043251
O       7.52931      9.60336     10.42360         0.151869     -0.585267      0.414924
O      11.24919      1.35092      2.27213        -0.378669      1.172848     -0.392027
O      11.26732      2.06835     14.68089         0.031421      0.481135      0.099006
O      11.33644     13.55716      2.22116        -1.035891     -0.836305     -0.012937
O      11.28918     12.75354     14.39022        -0.629951      0.020581      0.622312
O      11.13655      1.81279      6.58793         1.195711      0.109799     -0.496662
O      11.26532     13.33011      6.35781        -0.335246     -0.549874      0.127399
O      11.14572      1.60939     10.24287         1.017775     -0.005868      0.729721
O      11.20764     13.33179     10.46804         0.670266     -0.249706      0.072992
O      11.13352      5.82888      2.38431         1.440081      0.043167     -0.126329
O      11.18976      5.36989     14.50771         1.123628     -0.335923      0.695806
O      11.23637      5.81475      6.38195         0.059048     -0.024982      0.273372
O      11.17215      5.93178     10.41780         0.594573     -0.433239      0.261319
O      11.20271      9.04886      2.33590        -0.211444      0.072310     -0.031870
O      11.24295      9.73285     14.53732         0.239680     -0.075069     -0.359813
O      11.28674      9.10561      6.47585        -1.089486      0.381289     -0.212679
O      11.29497      8.97494     10.46196        -0.753474      0.879524      0.094557
O       2.25762      3.74060      2.11012        -0.018596     -0.351417      1.057889
O       1.70784      3.70531     14.59117        -0.791723      0.288218     -0.160271
O       1.63528     14.95444      2.15704        -0.563087      1.423028      0.147821
O       2.33912     14.98678     14.48840        -0.908414     -0.640170      0.682676
O      12.80991      3.71202      2.39404        -0.326395      0.381038     -0.365358
O      13.40518      3.67066     14.53547        -0.195735      0.955443      0.147873
O      13.58696      0.03167      2.31881        -0.239971     -1.235304     -0.064970
O      12.89995     14.93845     14.62655        -0.263145      0.221302      0.222925
O       1.89301      3.75213      6.50910         0.190098      0.183044     -0.925916
O       1.77782     14.99895      6.43111        -0.149812      0.933412      0.388226
O      12.98763      3.81749      6.36876        -0.168895     -0.423289      0.255043
O      13.20219      0.03430      6.34787         0.207164     -0.161160     -0.045920
O       2.11778      3.84266     10.61459         0.024907     -1.586943      0.203804
O       1.60554      0.00232     10.39382         0.095524      0.571044      0.330939
O      12.73700      3.76176     10.56854         0.771250     -0.694477      0.003220
O      13.55800     14.95377     10.37187        -1.076216      0.774948      0.172336
O       1.57610      7.39423      2.18407        -0.265179      0.886929      0.446060
O       2.08725      7.47688     14.77027         0.387252     -0.245148     -0.409411
O      13.28064      7.44683      2.37112         0.211924      0.270619     -0.032966
O      12.62471      7.49058     14.53549         0.954443     -0.235197      0.178441
O       1.67550      7.45512      6.45138         0.197450      0.808624     -0.133271
O      13.32308      7.51322      6.61671        -0.315876      1.081525     -0.354653
O       1.48832      7.48757     10.46787         0.980405      0.377147     -0.237823
O      13.41842      7.47682     10.49761        -0.286045     -0.472266     -0.458270
O       2.20900     11.21043      2.17833        -0.707756     -0.803977      0.540856
O       1.54802     11.22161     14.55177         0.159000      0.491377      0.132878
O      12.75230     11.18322      2.16811         0.296484      0.280098      0.807421
O      13.61022     11.18153     14.60123        -0.809326      0.178747     -0.258074
O       1.91046     11.26247      6.40422         0.336834     -0.254057      0.027726
O      12.86418     11.24739      6.44979         0.347206      0.495988     -0.146960
O       2.07079     11.24434     10.42885         0.230256     -0.263905      0.020051
O      12.93171     11.23364     10.38524        -0.685667      0.975031      0.642813
O       5.31975      3.71364      2.24322        -0.074414      0.991839      0.377502
O       5.84404      3.76260     14.50941         0.003292     -0.124469     -0.037164
O       5.86956     14.89840      2.18547         0.201934      0.643868      0.162355
O       5.39517     14.96609     14.59463        -0.161795     -0.171879      0.403829
O       5.44589      3.76907      6.22263         0.269453     -1.179688      0.273246
O       5.50155      0.03032      6.34392         0.847756      0.001346      0.449848
O       5.31591      3.68990     10.64028         0.065172     -0.080632      0.153290
O       5.80432     14.93102     10.51950        -0.046458      0.695433     -0.074167
O       6.05796      7.46292      2.25347        -0.675484      0.377758      0.199615
O       5.29854      7.52893     14.52352         0.342239     -0.037425      0.064760
O       5.73632      7.50446      6.52059         0.091294     -0.089481      0.034057
O       5.80188      7.42494     10.45507         0.431445      0.337717     -0.186054
O       5.16919     11.19495      2.33225         1.202837     -0.338377     -0.416906
O       5.82720     11.23798     14.58486         0.235002     -0.755146      0.290511
O       5.44469     11.24744      6.31227         0.101814     -0.388251      0.513066
O       5.52877     11.23070     10.36080        -0.942383     -0.094472      0.462334
O       9.53271      3.71140      1.99033         0.586417     -0.446224      0.979751
O       9.12354      3.75644     14.47248         0.104814     -0.153440      0.296187
O       8.93500     14.96563      2.23808         0.643460     -0.022574      0.547211
O       9.79026     15.00945     14.42556        -0.900902     -0.764047      0.419820
O       9.53535      3.79859      6.43571        -0.256776      0.449423      0.475639
O       9.23595     14.98474      6.49370        -0.328660      0.406213     -0.893656
O       9.51834      3.74442     10.41591         0.705231     -0.487534      0.083594
O       9.10751      0.00713     10.41174        -0.202259     -0.801412      0.622397
O       8.90654      7.54510      2.09419         0.505838     -0.365176      0.722160
O       9.52060      7.53309     14.46545         0.520791     -0.749999      0.469191
O       9.25018      7.49718      6.49048        -0.393513      0.586746     -0.085880
O       9.05074      7.51723     10.48911        -0.072573     -0.314423      0.218047
O       9.67543     11.29570      2.29792         0.131546     -0.669882      0.125607
O       9.10769     11.26749     14.49733        -0.156583      0.110198      0.658869
O       9.54289     11.26135      6.45646        -0.008337     -0.272433     -0.255247
O       9.50524     11.21562     10.42750         0.637611      1.079364      0.252694
