  # total energy = -7867.25282929 
CRSYTAL
PRIMVEC
    15.010000000000000    0.0000000000000000    0.0000000000000000
     0.0000000000000000   15.010000000000000    0.0000000000000000
     0.0000000000000000    0.0000000000000000    16.400000000000000
PRESSURE
17.8043 17.7122 8.65615 0.116119 -0.004311 -0.042766
PRIMCOORD
320 1
Pb       3.58523      3.64067      4.00062         0.698238      0.510671      0.534412
Pb       3.66164      3.70509     16.35036         0.030728     -0.076671      0.221391
Pb       3.82206     14.88422      4.12370        -0.321495     -0.125995      0.098000
Pb       3.80627     14.98719      0.08253        -0.301539     -0.424706     -0.344313
Pb      15.00429      3.79358      4.21279        -0.246256      0.289633     -0.710578
Pb      14.92169      3.70731      0.14846         0.067799      0.125790     -0.486023
Pb      14.92384     15.00781      4.22522         0.277875     -0.193317     -1.025489
Pb       0.05421      0.01381      0.06644         0.181411     -0.274773     -0.498307
Pb       3.63693      3.70430      8.19202         0.000102      0.228541     -0.165075
Pb       3.72710      0.17035      8.23382         0.042069     -0.304926     -0.133224
Pb      14.85200      3.67778      8.16946         0.600166      0.562198      0.154647
Pb      14.96686      0.06857      8.21851        -0.202279     -0.057634     -0.057894
Pb       3.75273      3.64517     12.45625        -0.011780      0.018824     -0.941376
Pb       3.68021     14.98417     12.27472        -0.205220      0.108342     -0.018148
Pb      14.89259      3.79597     12.32908        -0.051111     -0.925516     -0.083865
Pb      14.95746      0.00000     12.33343        -0.482665      0.208122     -0.415816
Pb       3.90946      7.54845      4.20372        -0.684253     -0.216826     -0.793810
Pb       3.76640      7.59609     16.34901        -0.122651     -0.123777      0.041964
Pb       0.14688      7.53661      4.15327        -0.944845     -0.082601      0.072625
Pb       0.09944      7.41293      0.06139        -1.110740      0.480230     -0.386786
Pb       3.73189      7.50765      8.37547        -0.329543     -0.541906     -0.505825
Pb       0.03314      7.52850      8.20455         0.026436     -0.220783      0.076904
Pb       3.67917      7.32315     12.39292         0.146663      0.735742     -0.572023
Pb      14.93846      7.54456     12.30992        -0.281395      0.100667     -0.409071
Pb       3.89954     11.08634      4.07064        -0.966487      0.741205      0.739982
Pb       3.77011     11.29246      0.18600        -0.253874      0.046714     -0.881039
Pb       0.06298     11.18711      4.17686        -0.133623      0.258234     -0.314957
Pb       0.08126     11.18540      0.11622        -0.376762      0.201413     -0.705797
Pb       3.69791     11.31065      8.22394         0.543436     -0.362350     -0.202817
Pb       0.03662     11.28775      8.15949        -0.317728     -0.361715      0.200480
Pb       3.72902     11.12795     12.34512        -0.143760      0.214021     -0.382080
Pb      15.00844     11.20352     12.30351        -0.457355      0.132059     -0.218608
Pb       7.41229      3.85460      4.10050         0.132273     -0.348551     -0.424358
Pb       7.44536      3.68992      0.08605        -0.173566     -0.051387     -0.107002
Pb       7.51419     14.94561      4.06861        -0.086078      0.038097      0.067347
Pb       7.63074     14.88829      0.03862        -0.641051      0.421893     -0.207931
Pb       7.42726      3.81503      8.28836        -0.118224     -0.480825     -0.605695
Pb       7.37503     14.97682      8.25571         0.691442      0.329670     -0.216929
Pb       7.40907      3.73077     12.40550         0.056442      0.514318     -0.370330
Pb       7.40876      0.08416     12.21884         0.452908     -0.275174      0.177756
Pb       7.64598      7.42240      4.17939         0.178052      0.517212     -0.525263
Pb       7.49077      7.41227     16.38597        -0.384960      0.116366     -0.145043
Pb       7.57914      7.43025      8.16983        -0.291568      0.020423     -0.204153
Pb       7.44336      7.56882     12.22156        -0.011462     -0.602085      0.078549
Pb       7.49856     11.10461      4.15593         0.416460     -0.067100     -0.177766
Pb       7.46531     11.23983     16.38595        -0.112365      0.071617      0.158934
Pb       7.56092     11.26359      8.21657        -0.360583     -0.115073     -0.333794
Pb       7.47917     11.31601     12.28681        -0.331181     -0.274426     -0.236325
Pb      11.33320      3.75367      4.19170        -0.294767      0.029919     -0.743698
Pb      11.23372      3.74935      0.09119         0.108078     -0.108867     -0.300414
Pb      11.19675     14.90794      4.09059         0.058802      0.459955     -0.215648
Pb      11.38297     14.99022     16.38304        -0.560708      0.086726     -0.154182
Pb      11.17482      3.66940      8.37095         0.367642      0.057497     -1.033768
Pb      11.19817     15.00391      8.19971         0.122806      0.121187     -0.369472
Pb      11.15292      3.74689     12.35121         0.460089     -0.241942      0.079809
Pb      11.16412     14.82281     12.37609         0.897784      1.070830     -0.740713
Pb      11.30766      7.50507      4.11025        -0.344371      0.013255      0.082514
Pb      11.23713      7.42498     16.37168         0.743127     -0.119551      0.185601
Pb      11.32605      7.48324      8.23724        -0.075484      0.004395     -0.691044
Pb      11.03411      7.54043     12.34553         0.740688     -0.776668      0.288751
Pb      11.18383     11.21327      4.11015        -0.158251     -0.339321     -0.002492
Pb      11.16619     11.35876      0.01350         0.614848     -0.471145     -0.196758
Pb      11.32653     11.38978      8.17603        -0.092873     -0.615571     -0.599301
Pb      11.15713     11.21207     12.35451         0.800667      0.143062     -0.136365
Ti       1.80528      1.85149      2.15994         0.560301     -0.411782     -0.035261
Ti       1.83134      1.83021     14.34880        -0.371894     -1.072064      0.301508
Ti       1.84072     13.10964      2.19663         0.324846      0.403987     -0.398558
Ti       1.81741     13.09138     14.44635         0.760661      1.041040     -0.047818
Ti      13.08530      1.87058      2.06073        -0.132765      0.320392      1.052617
Ti      13.08737      1.88552     14.46784         0.302433     -0.357364     -2.447455
Ti      13.13087     13.11669      1.99622         0.230131      0.088590      0.964228
Ti      13.14843     13.08256     14.36374         0.276489      0.077829      0.541439
Ti       1.80169      1.84188      6.12762         0.818173      0.681612      1.412892
Ti       1.90287     13.15287      6.22667         0.360881     -0.376787     -0.536692
Ti      13.05641      1.85471      6.07922        -0.392371      0.369148      1.486394
Ti      13.16006     13.15792      6.06404        -0.564625     -0.575833      0.897753
Ti       1.77344      1.92129     10.28535         0.943685     -0.392855      0.188476
Ti       1.87888     13.11801     10.26013        -0.489000      0.764077      0.583605
Ti      13.06631      1.91245     10.34920         0.808004     -1.495988      1.488582
Ti      13.12424     13.08184     10.24698        -0.100424      1.311252      0.443248
Ti       1.81542      5.64388      2.06900         0.082399     -0.392249      0.931006
Ti       1.77404      5.58930     14.36434         0.001326     -0.303093      0.287657
Ti      13.07775      5.67024      2.07892         0.128434      0.071713      0.339119
Ti      13.10247      5.58575     14.26826        -0.860821      0.597024      1.980476
Ti       1.85460      5.64124      6.18140         0.049924     -0.504076      0.590517
Ti      13.10746      5.64255      6.21758        -0.392341     -0.125796     -0.352738
Ti       1.80520      5.58785     10.42302        -0.160879      0.105892     -2.077784
Ti      13.05893      5.63684     10.31972         0.985478     -0.545933     -0.304877
Ti       1.80407      9.37266      2.07183         1.052480      0.133679      0.213135
Ti       1.85270      9.35226     14.31329         0.209720      0.858597      0.499195
Ti      13.06923      9.41873      2.11500         0.288953     -1.081702     -0.463389
Ti      13.08797      9.33685     14.51191         0.563446      0.009862     -0.911998
Ti       1.94981      9.42067      6.19681        -0.276208     -0.624291      0.042707
Ti      13.17159      9.42976      6.18168        -0.853644     -0.833112      0.190604
Ti       1.83990      9.35851     10.28189        -0.346590     -0.182260     -0.336704
Ti      12.99627      9.36425     10.30935         3.097842      0.277319     -0.837829
Ti       5.56722      1.83126      2.14785         0.675361      0.242315      0.160146
Ti       5.63623      1.85786     14.45087        -0.750654     -0.964724     -0.200612
Ti       5.62040     13.03243      2.16035         0.408807      0.769108     -0.614273
Ti       5.58520     13.09056     14.31307        -0.271860      0.641167      0.998420
Ti       5.66869      1.86783      6.14396        -0.240688      0.452990      1.300772
Ti       5.62556     13.12208      6.23547        -0.655795     -0.739678     -0.963809
Ti       5.64213      1.87613     10.30279        -1.086925      0.950079     -0.128888
Ti       5.56481     13.09238     10.30214        -0.151699      0.310265     -0.311700
Ti       5.51640      5.59327      1.96741         0.763529      0.388205      0.619736
Ti       5.56191      5.62716     14.38083         0.687310      0.376140      0.244663
Ti       5.53513      5.58180      6.12209         0.475807     -0.001566      1.374372
Ti       5.57410      5.60910     10.29190         0.011767     -0.334703      0.146634
Ti       5.66058      9.28419      2.09206         0.410076     -0.497046      0.134688
Ti       5.66464      9.34866     14.35098        -0.845514      0.541926      0.435837
Ti       5.66732      9.27831      6.24508        -0.293085      2.048598      1.043818
Ti       5.56714      9.36209     10.21675         0.172556      0.149146      1.361365
Ti       9.34988      1.91153      2.11644         0.217178     -0.319575     -0.442676
Ti       9.36334      1.85373     14.39289         0.556496      0.226515      0.336618
Ti       9.37660     13.11171      2.07779         0.452299     -0.211057      0.274847
Ti       9.33732     13.13029     14.37932         0.206747     -0.044563      0.699232
Ti       9.33468      1.86084      6.12846         0.214472     -0.491727      1.309740
Ti       9.35793     13.11755      6.17987         0.893153     -0.248047      0.222845
Ti       9.41353      1.88846     10.33301        -0.262210     -1.449274     -0.680187
Ti       9.36905     13.09289     10.22457         0.239790      1.237409      0.473243
Ti       9.36951      5.56324      2.02690        -0.372579      0.455011      1.698989
Ti       9.32064      5.53860     14.48367         0.019627      0.740152     -0.781969
Ti       9.36348      5.51195      6.15215         0.192834      1.868728      0.598388
Ti       9.37178      5.57574     10.23415        -0.543982      1.317160      1.523234
Ti       9.37487      9.30441      1.88421        -0.005681      0.192181      1.965641
Ti       9.37947      9.34646     14.41713        -0.539724     -0.235087      0.549714
Ti       9.37151      9.36840      6.33009         0.375308     -0.486566     -0.984634
Ti       9.35599      9.37663     10.31994        -1.350490     -0.133995     -1.290413
O       1.87618      1.81368      0.36607        -0.080809      0.376099     -0.942761
O       1.96600      1.84215     12.52897        -0.315298      0.032161      0.504901
O       1.90394     13.10977      0.34182        -0.136792     -0.225693      0.458019
O       1.73378     13.17741     12.64140         0.436629     -0.399376     -0.928807
O      13.15521      1.92262      0.23768        -0.032333     -0.186973     -0.325708
O      13.14306      1.84325     12.54135        -0.223294      0.422483      1.612277
O      13.18737     13.22322      0.19033        -0.372144     -0.509104      0.337954
O      13.18091     13.04392     12.55397        -0.227893      0.165859     -0.014881
O       1.81825      1.92892      4.34852        -0.065910     -0.201905     -0.307252
O       1.91996     13.14935      4.42910        -0.507672      0.016610     -1.005310
O      13.12142      1.80488      4.31836         0.012685      0.443689     -0.845843
O      13.12628     13.22826      4.28260         0.142900     -0.176703     -0.201497
O       1.70798      1.84831      8.45548         0.180990     -0.023969     -0.224509
O       2.04920     13.11463      8.46467        -0.472697      0.275619     -0.584469
O      13.13642      1.86178      8.54833        -0.168770     -0.191410     -0.880320
O      13.05285     13.00221      8.40952         0.395611      0.477084      0.178475
O       1.77280      5.68699      0.28068         0.050084     -0.330379     -1.128506
O       1.72928      5.56177     12.54724         0.923482      0.504807      0.726690
O      13.02446      5.61129      0.27680         0.752495     -0.059838     -0.300225
O      13.12236      5.72286     12.50691        -0.204154     -0.106748     -0.300531
O       1.83278      5.53108      4.35004         0.149197      0.320802     -0.260401
O      12.97089      5.60815      4.33613         0.493259     -0.199943      0.969450
O       1.77321      5.62218      8.52262         0.370306      0.044397      0.291573
O      13.03021      5.58047      8.47957        -0.026784     -0.035445     -0.483604
O       1.89823      9.42458      0.23157        -0.355981     -0.344708      0.192804
O       1.83062      9.36008     12.45488         0.303277      0.224631      0.976823
O      13.13076      9.43206      0.28999        -0.011983     -0.274820      0.011470
O      13.14049      9.27195     12.59699        -0.342040      0.097896      0.064363
O       1.88532      9.42437      4.36526        -0.090733     -0.424995     -0.454973
O      13.13713      9.35686      4.37452        -0.009742      0.062626     -0.226003
O       1.84349      9.31869      8.40699         0.217917      0.037170     -0.011911
O      13.20557      9.48805      8.43460        -0.545218     -0.127601      0.660927
O       5.59220      1.88385      0.33840        -0.009079      0.095379     -1.007649
O       5.47792      1.81711     12.59071         0.469216     -0.074497      0.103687
O       5.55223     13.07405      0.29991         0.460608     -0.387085      0.323703
O       5.62484     13.27841     12.49882         0.140369     -0.717525      0.176268
O       5.67720      1.80013      4.39828         0.022349      0.042057     -1.663969
O       5.64435     13.16399      4.31589         0.262938      0.001126      0.904391
O       5.71782      1.96585      8.50130         0.250640      0.018047     -0.377789
O       5.51753     13.12287      8.48017         0.103332     -0.178947     -0.598468
O       5.63160      5.51010      0.17296        -0.290088      0.446971     -0.124877
O       5.61003      5.60831     12.55598         0.048768      0.621546      0.092235
O       5.47557      5.70882      4.33051         0.388850     -0.361283     -0.071060
O       5.45998      5.49151      8.49883         0.401896      0.188815     -0.317566
O       5.65399      9.37157      0.31922         0.072998      0.162455     -1.042697
O       5.51373      9.40019     12.57757         0.247633     -0.316993     -0.585875
O       5.67160      9.27713      4.44179         0.086814      0.062456     -1.679650
O       5.57686      9.37220      8.46050         0.136520      0.204961     -0.698903
O       9.34836      1.94715      0.25282        -0.367258     -0.368241      0.662729
O       9.36601      1.89506     12.59255         0.230419      0.276466     -0.242222
O       9.42788     13.08597      0.25856        -0.369265      0.683399     -0.254259
O       9.37200     13.08290     12.58988        -0.152725     -0.295840     -0.726433
O       9.39418      1.71636      4.36555        -0.315187      0.778438     -0.344150
O       9.51358     13.16891      4.36530        -0.790153     -0.513226     -0.988565
O       9.33455      1.88970      8.45433         0.428430     -0.262569      1.358248
O       9.44843     13.11450      8.42751        -0.292394      0.018482     -0.315351
O       9.34735      5.56917      0.23293        -0.108964     -0.023571     -0.251065
O       9.22297      5.56035     12.66367         0.650681      0.143998     -0.783446
O       9.32849      5.59708      4.35963         0.060752     -0.163831     -0.510150
O       9.49545      5.61737      8.47779        -0.110862      0.153643     -0.716023
O       9.28308      9.23399      0.12489         0.291278      0.527088     -0.265460
O       9.45639      9.30592     12.58626        -0.448624      0.659484     -0.654069
O       9.25675      9.47006      4.49765        -0.013588     -0.311546     -0.798618
O       9.26565      9.37106      8.46095         0.296791     -0.086711      1.004796
O       3.73139      1.76340      2.48521        -0.163097      0.188232     -0.108893
O       3.72579      2.02738     14.60845        -0.047568      0.113018      0.556062
O       3.78243     13.13339      2.38632        -0.964107     -0.019352      0.125323
O       3.75234     12.92388     14.69554         0.585123     -0.303864     -0.362686
O       0.00587      1.98709      2.42271        -1.347996      0.111347     -0.127194
O      14.91652      1.65696     14.65384         2.254619     -0.235360      0.242924
O      14.97743     12.96043      2.41120         0.050639      0.243570     -0.199331
O      14.99170     13.24642     14.70198        -0.480657      0.432538      0.178675
O       3.81971      1.82018      6.45116        -1.592187     -0.233530      0.150128
O       3.77606     13.34031      6.25079         0.564335      0.015087      0.918267
O      14.94824      1.94804      6.47394         0.058517     -0.416693     -0.414703
O       0.03304     12.98368      6.42165        -0.554677      0.257111      0.238145
O       3.72538      1.85714     10.28902         0.271684     -0.127249      0.741510
O       3.71484     13.22053     10.60972        -0.049205      0.172779      0.298271
O      14.98211      2.00966     10.63025        -0.468213     -0.116539     -0.125211
O      14.95887     13.04347     10.38790         1.236661     -0.232333      0.285081
O       3.70383      5.89110      2.19223        -0.613402     -0.152997      0.398757
O       3.68740      5.51066     14.66799        -0.254737     -0.013894     -0.246055
O      14.92238      5.48430      2.32551         1.096618     -0.158851      0.236500
O      14.95415      5.82705     14.57753         0.737020      0.082859      0.431423
O       3.70611      5.66881      6.56524         0.135592      0.527199     -0.466119
O      15.00133      5.47155      6.44065        -0.824469     -0.074784     -0.137575
O       3.75301      5.74756     10.67266        -0.429431     -0.165959     -0.132320
O      14.96033      5.44236     10.67471        -0.323384      0.567055     -0.513879
O       3.73333      9.23184      2.23927         0.472822     -0.129466      0.682497
O       3.77152      9.47883     14.61883        -0.411814      0.327162      0.268961
O      15.00553      9.61281      2.33269        -0.803557     -0.293820      0.094075
O       0.01066      9.27710     14.61694         0.236445     -0.394817      0.112278
O       3.76135      9.20777      6.37762         0.051053     -0.421455      0.424577
O       0.05286      9.57043      6.36516        -0.607897      0.078681      0.304084
O       3.70246      9.27547     10.50928         0.985932     -0.280358      0.288881
O      15.00465      9.42139     10.50302        -0.633140      0.282034      0.342096
O       7.48292      2.16958      2.40823        -0.500309     -0.573384     -0.197703
O       7.45596      1.67472     14.56760         0.314388      0.217633      0.340336
O       7.54514     12.99029      2.26324        -0.345964      0.116256      0.435323
O       7.49911     13.34591     14.67795        -0.369684     -0.354361     -0.049123
O       7.52912      2.05892      6.47973        -0.065197     -0.117555     -0.031227
O       7.49955     13.03087      6.43206         0.000313     -0.340931      0.326607
O       7.56035      2.02259     10.68112        -0.626016     -0.311361     -0.193356
O       7.46930     13.06212     10.41913         0.121508     -0.117631      0.586011
O       7.45861      5.38582      2.27222         0.397438     -0.012148      0.134875
O       7.45532      5.76464     14.63370         0.518737     -0.158194      0.354076
O       7.48868      5.47658      6.51568        -0.712515      0.239321     -0.079874
O       7.49749      5.58294     10.41901         0.621896     -0.491337      0.349441
O       7.56738      9.44412      2.33484        -0.655363      0.600735      0.194766
O       7.50101      9.11185     14.60036         1.060884      0.411473     -0.114281
O       7.47187      9.55450      6.59386        -0.005344     -0.038522     -0.131352
O       7.43359      9.51190     10.72257         0.865623      0.087642     -0.432277
O      11.21127      1.81027      2.31865         0.889986     -0.393387      0.024864
O      11.26138      2.03555     14.69876        -0.975643      0.184112      0.123425
O      11.28915     13.26834      2.27438        -0.630220      0.142712      0.027086
O      11.25463     13.01628     14.68698        -0.502294     -0.239631     -0.246816
O      11.21109      1.67781      6.43414         0.479967      0.377535      0.155533
O      11.30907     13.26407      6.37171        -0.626038     -0.166972      0.475557
O      11.27873      1.69709     10.69441        -1.763888      0.613077     -0.377571
O      11.21455     13.22364     10.45534         0.119987     -0.284745      0.578156
O      11.20648      5.79841      2.26304        -0.189202      0.051689      0.389913
O      11.24308      5.39027     14.71168         0.312837      0.148773     -0.521276
O      11.17300      5.90449      6.42962         1.341128     -0.482932      0.078330
O      11.25820      5.72363     10.64704        -1.306784      0.306954      0.051677
O      11.20872      9.15682      2.38492         0.133465      0.334677     -0.179046
O      11.23077      9.56287     14.67842         0.119308      0.092434     -0.026429
O      11.21144      9.30033      6.40788         1.624136     -0.550307      0.534529
O      11.22814      9.31763     10.56934        -0.687954     -0.325731      0.107813
O       1.91371      3.76085      2.32726         0.534497      0.331087      0.014966
O       1.68075      3.66234     14.63369        -0.035677      1.479265      0.401850
O       1.76141     14.99439      2.40811        -0.064035     -0.462083      0.215971
O       2.03744     14.96021     14.75797        -0.009007      1.075757     -0.081884
O      12.97345      3.75968      2.27033        -0.063902     -0.307653      0.556234
O      13.39046      3.76531     14.61773        -0.276717      0.174863      0.073732
O      13.19731      0.04023      2.25436         0.505582     -1.069021      0.129514
O      12.91469      0.00292     14.56561         0.083384     -0.735916      0.308289
O       1.88801      3.69232      6.42183         0.343527      0.335749      0.130902
O       1.83667     15.00822      6.49535        -0.616950      0.542006      0.143936
O      13.03785      3.71924      6.50225        -0.614950      0.282548     -0.366857
O      13.20406      0.01165      6.37037         0.685360     -0.361777      0.512229
O       1.93647      3.76639     10.58707         0.482984     -0.652581      0.230664
O       1.75434      0.03602     10.58292         0.035778     -0.872466     -0.167410
O      12.97338      3.74984     10.64122        -0.227696      0.142895     -0.128377
O      13.13281     15.00000     10.62837         0.678216     -0.944972     -0.394024
O       1.61031      7.51322      2.35485         0.227391      0.093333     -0.171914
O       2.04263      7.50375     14.61508        -0.356527     -0.278986     -0.096129
O      13.29628      7.51878      2.42376        -0.035715      0.340875     -0.171804
O      12.98725      7.46182     14.76136        -0.215870      0.165681     -0.318615
O       1.65831      7.47426      6.33023         0.373153      0.558382      0.212968
O      13.28240      7.47814      6.45233        -0.055920      0.735866      0.279486
O       1.85964      7.45661     10.50888        -0.495688      0.844853      0.464044
O      13.27017      7.44719     10.35442        -0.167002      2.071550      0.509086
O       1.92728     11.22832      2.44719         0.591295      0.250051     -0.234673
O       1.71801     11.29994     14.68346         0.081812     -2.326996     -0.160467
O      12.91020     11.23909      2.40805         0.167376      0.844031     -0.323414
O      13.25476     11.20434     14.68261         0.104654      0.782347     -0.086700
O       2.14330     11.27704      6.41218        -0.412512     -0.233559      0.450893
O      13.01031     11.27062      6.33636         0.017118      0.135947      0.168233
O       2.01174     11.24536     10.41864        -0.259761      0.255607      0.631379
O      12.98954     11.25661     10.66064         0.026596     -0.837540     -0.159498
O       5.39853      3.77407      2.25049        -0.252945     -0.669805      0.755536
O       5.73714      3.79314     14.54726         0.091836     -1.658412      0.323641
O       5.63969     14.94975      2.33013         0.765930      0.641910      0.113011
O       5.42409     14.94269     14.75542         0.206124      0.885633     -0.336158
O       5.53235      3.76127      6.37355        -0.002767      0.164583      0.053113
O       5.79571      0.02426      6.58291        -0.112118     -0.367482     -0.363214
O       5.57753      3.75809     10.69886        -0.018969     -0.266624     -0.038223
O       5.62303      0.03395     10.42228         0.645188     -0.678714      0.533797
O       5.83524      7.44387      2.32924        -0.251525      0.343879      0.054064
O       5.65538      7.51577     14.71065        -1.447891     -0.767510      0.036966
O       5.74422      7.52901      6.50816         0.009123     -2.739441      0.221669
O       5.80263      7.50571     10.42750        -0.542605      0.101276      0.420891
O       5.56389     11.18113      2.45834         0.274488     -0.345359     -0.322930
O       5.95022     11.22360     14.60278        -0.493747      0.511696     -0.222699
O       5.47755     11.22191      6.40200        -0.076945      1.016129      0.184965
O       5.44188     11.25035     10.61070         0.323289      0.109962      0.054690
O       9.60607      3.73537      2.54497        -0.531297      0.769323     -0.551850
O       9.24544      3.71013     14.72737        -0.490007     -0.208207     -0.177794
O       9.25234      0.04736      2.39946        -0.251218     -1.087975     -0.537609
O       9.45880      0.00535     14.62971         0.501028     -0.354555      0.407323
O       9.55298      3.75841      6.51248         0.262446     -1.367884     -0.226374
O       9.27050     14.92781      6.43567        -0.320624      1.653098      0.427640
O       9.58516      3.76903     10.49749        -0.105782     -0.658005      0.261418
O       9.31687     15.00963     10.66974        -0.369761     -0.391968     -0.444448
O       9.21537      7.48806      2.37608        -0.085677     -0.889908     -0.178275
O       9.67534      7.48078     14.66553        -0.673521     -0.402640     -0.530608
O       9.16269      7.49088      6.35923        -0.238187     -0.291548      0.567041
O       9.28437      7.53489     10.53355         0.096667     -0.730933      0.297390
O       9.59988     11.21028      2.18872        -0.245526      0.206728      0.351433
O       9.17128     11.24995     14.72595         0.219267     -0.124787     -0.462220
O       9.49892     11.23664      6.42084        -0.184021      1.378552      0.619219
O       9.44571     11.22833     10.50203        -0.003667      0.602403      0.584853
