  # total energy = -7882.24323956 
CRSYTAL
PRIMVEC
    15.3600000000000000    0.0000000000000000    0.0000000000000000
     0.0000000000000000   15.3600000000000000    0.0000000000000000
     0.0000000000000000    0.0000000000000000    17.440000000000000
PRESSURE
1.71571 1.18799 -2.1597 0.351937 0.230652 -0.021689
PRIMCOORD
320 1
Pb       3.93879      3.78281      4.33861        -0.577419     -0.271384      0.095209
Pb       3.83813      3.79940     17.41758        -0.035743      0.144590      0.342884
Pb       3.81074      0.01764      4.36490        -0.121024     -0.211627      0.163469
Pb       3.86095     15.31198     17.30998        -0.718977     -0.235005      0.580685
Pb       0.04893      3.85225      4.31161        -0.146319     -0.114127     -0.374634
Pb      15.35135      3.77114     17.40190        -0.375171     -0.091962      0.760016
Pb       0.02854      0.00905      4.37229         0.170950     -0.137256     -0.323744
Pb      15.27689      0.09630     17.34034         0.678374     -0.627759      0.620674
Pb       3.74854      3.90737      8.59757        -0.124690     -0.358767      1.483508
Pb       3.70642     15.25784      8.70189        -0.076846      0.928119      0.787591
Pb      15.20523      3.89916      8.68263         0.959566     -0.399136      0.436890
Pb      15.30847     15.27305      8.69571         0.346760      0.020412      0.524759
Pb       4.03488      3.72739     12.97220        -1.025720      0.664617      0.504808
Pb       3.84946     15.34666     12.97383        -0.262928     -0.229065     -0.285476
Pb       0.01088      3.78527     13.00843        -0.043126      0.139955      0.226778
Pb      15.26485     15.20463     13.00222         0.246445      1.196744      0.508135
Pb       3.85977      7.69935      4.29850        -0.182308      0.082210      0.364242
Pb       3.78236      7.70435      0.02004         0.229588     -0.308510      0.202245
Pb       0.02855      7.63070      4.26796        -0.075501      0.003394      0.385680
Pb       0.13405      7.68110      0.03533        -0.317723     -0.220078     -0.203122
Pb       3.71927      7.63609      8.63098         0.568778      0.232599      0.087404
Pb      15.18569      7.68854      8.67186         0.979356      0.284827      0.246276
Pb       3.88451      7.60249     13.09885        -0.282160      0.078080      0.123542
Pb       0.00287      7.68580     13.03142        -0.714572     -0.257193     -0.123096
Pb       3.83006     11.47392      4.37314         0.033984      0.507800     -0.044750
Pb       3.77176     11.49969     17.39602         0.237532      0.501734     -0.249084
Pb       0.05154     11.55313      4.22843         0.030890      0.112368      0.881151
Pb      15.23523     11.44361      0.03309         0.252447      0.544094     -0.358403
Pb       3.84413     11.43165      8.69241        -0.124372      0.510398      0.320479
Pb       0.03087     11.51290      8.71062        -0.040497      0.115950     -0.323377
Pb       3.85265     11.36755     12.91513         0.577555      0.750029      0.746052
Pb       0.07325     11.40868     13.01470        -0.652591      0.034979      0.187087
Pb       7.64915      3.82023      4.19029        -0.065292     -0.036921      1.347070
Pb       7.70197      3.74476      0.04839         0.446216      0.388005     -0.522366
Pb       7.63327     15.27396      4.36317         0.282467      0.168025      0.867663
Pb       7.53792     15.30874     17.41308         0.107976      0.036370     -0.334431
Pb       7.49197      3.91193      8.58719         0.674444      0.214914      1.001855
Pb       7.65569      0.11425      8.69899         0.016794     -0.292142      0.452484
Pb       7.70295      3.84786     12.99922         0.157697     -0.394838     -0.331828
Pb       7.71586      0.00142     12.93455        -0.172095     -0.104959      0.108000
Pb       7.69475      7.66812      4.30829         0.028109     -0.154927      0.283301
Pb       7.58171      7.67597      0.00543         0.191642     -0.046508     -0.037388
Pb       7.74536      7.62742      8.71904        -0.462460      0.340702     -0.238546
Pb       7.71315      7.67704     13.13138         0.529464      0.423026      0.025311
Pb       7.64414     11.38655      4.33290        -0.199324      0.422086      0.183042
Pb       7.54232     11.62610     17.23656        -0.258510     -0.604588      0.638306
Pb       7.83209     11.52053      8.76552        -0.910558     -0.009851     -0.477306
Pb       7.68969     11.62314     12.95717         0.047367     -0.312826      0.585347
Pb      11.52893      3.72414      4.26512         0.229695     -0.228025      0.869851
Pb      11.55537      3.83685      0.10424        -0.717547     -0.102819     -0.564054
Pb      11.65020     15.32764      4.35799        -0.281131      0.058669      0.090059
Pb      11.30186     15.29012      0.00631         0.491948      0.315211      0.038012
Pb      11.54871      3.82902      8.60213        -0.305099     -0.085496      0.422559
Pb      11.42883      0.05702      8.66709         0.108653     -0.040634      0.117692
Pb      11.44985      3.78512     12.99994         0.255282      0.659156      0.535293
Pb      11.39948     15.29290     13.12160         0.400947      0.247389     -0.215222
Pb      11.57096      7.51934      4.29753        -0.006416      0.644936      0.373372
Pb      11.37990      7.74730     17.39572         0.439306     -0.801042      0.322577
Pb      11.58560      7.70091      8.62262        -0.119663     -0.356115      0.299175
Pb      11.41281      7.54762     13.16550         0.879758      0.579157     -0.585767
Pb      11.43468     11.52071      4.23423         0.649202      0.143504      0.548296
Pb      11.44051     11.52778     17.36269         0.432410      0.171618      0.874559
Pb      11.35062     11.40920      8.71989         1.136962      0.470665      0.056523
Pb      11.58675     11.48313     13.06676        -0.121882     -0.517448      0.024957
Ti       1.94252      1.89713      2.35921        -0.733139     -0.526412     -0.535061
Ti       1.94713      1.95347     15.38462        -1.646687     -0.877945      0.755520
Ti       1.97481     13.39651      2.23744        -0.186727      0.757266      0.495851
Ti       1.90605     13.48070     15.28598        -0.215099     -0.002921      0.247433
Ti      13.44235      1.87930      2.28537         0.373589     -0.039871      0.844856
Ti      13.30964      1.88388     15.45781         0.513092     -0.458366     -0.582578
Ti      13.48396     13.40444      2.36524        -0.164984      0.528383     -1.584772
Ti      13.45479     13.35958     15.48361         0.267007      0.949731     -0.513250
Ti       1.85507      1.98662      6.71880         0.488389     -0.630939      0.367811
Ti       1.93906     13.50585      6.69853        -1.245399     -0.634639     -0.671340
Ti      13.48394      1.85700      6.69094        -1.065495      0.169361     -0.639442
Ti      13.37640     13.40581      6.76262         0.235371     -0.362090     -1.368274
Ti       1.86714      1.98843     11.02669        -0.673201     -0.798025     -1.917916
Ti       1.90296     13.42243     11.14707         0.217208      1.278570     -0.930532
Ti      13.36195      1.93280     11.05036         0.443481     -0.870783     -1.331443
Ti      13.42954     13.46403     11.13966        -0.420003     -0.545007     -1.290305
Ti       1.95099      5.77861      2.34338        -1.299137     -0.682397     -1.238214
Ti       1.88146      5.70296     15.50218        -0.163900      0.929432     -1.180347
Ti      13.40892      5.70803      2.37205         0.904716     -0.184660     -0.543591
Ti      13.38067      5.69044     15.56234        -0.384425      0.671477     -1.561432
Ti       1.85854      5.78747      6.66600        -0.023541      0.352688      0.198844
Ti      13.48807      5.68362      6.64930        -0.862359      0.995353     -1.000070
Ti       1.93072      5.84300     11.01398        -1.303434     -1.351339     -1.348121
Ti      13.44863      5.69124     11.01548        -0.615747      1.603412     -0.215121
Ti       1.97058      9.60451      2.27158         0.489543     -0.171735      0.327085
Ti       1.97356      9.62817     15.40526        -0.450580      0.377872      0.409787
Ti      13.49593      9.65493      2.32348        -0.025521     -0.603652      0.113012
Ti      13.41222      9.51885     15.46679         0.512085      0.211861     -0.271369
Ti       1.97860      9.64644      6.57960        -1.206987     -0.032893      1.061536
Ti      13.47444      9.62346      6.65229         0.289131     -0.018902     -0.992663
Ti       1.99227      9.57919     11.01193        -1.102669     -0.219691     -1.894113
Ti      13.41185      9.58046     11.00910        -0.838056     -0.332742      1.455130
Ti       5.79055      1.89360      2.35616        -1.329256     -0.555761     -0.314913
Ti       5.70158      1.84993     15.37215         1.356250      0.525660     -1.561210
Ti       5.68257     13.48397      2.35289         0.070754     -0.311127     -0.798830
Ti       5.69927     13.36963     15.24018        -0.150217     -0.011146     -1.035675
Ti       5.69941      1.92912      6.79175        -0.568673     -0.018308     -1.967434
Ti       5.72525     13.49683      6.85198         0.141084     -0.684666     -0.256586
Ti       5.71787      1.92011     10.99627         0.690026     -0.182752     -1.083286
Ti       5.76216     13.39545     10.96553         0.040835      0.263376     -0.811989
Ti       5.69640      5.76852      2.39322         0.673623     -0.144383     -0.290678
Ti       5.72529      5.70407     15.41435         0.278132     -0.150966      0.531265
Ti       5.63248      5.77366      6.58826         0.824374      1.363404      0.027484
Ti       5.73255      5.83439     11.07699         0.295931     -0.294233     -2.373419
Ti       5.78826      9.67432      2.34877        -1.019041     -0.517978     -0.729877
Ti       5.70895      9.49442     15.39892         1.369225      0.745393     -0.279554
Ti       5.76250      9.65365      6.71274         0.225572     -0.946014      0.554643
Ti       5.79836      9.50746     10.93704        -0.097061      0.794913     -1.338758
Ti       9.52366      1.86659      2.42233         1.512471     -0.596269     -1.915472
Ti       9.46994      1.85277     15.36689         0.821855      1.353733      0.087466
Ti       9.52045     13.40791      2.39329         1.033381      0.719264     -1.645559
Ti       9.57865     13.40019     15.44249        -0.389992     -0.130030     -1.580005
Ti       9.50328      1.97467      6.73988         1.270425     -0.555084     -1.440806
Ti       9.47589     13.46176      6.70362         1.255176      0.541735      0.027645
Ti       9.61046      1.95042     11.05513        -0.230415     -0.279289     -1.714393
Ti       9.68415     13.39275     10.99707        -1.048578      0.510411      0.626463
Ti       9.54133      5.68622      2.37449         0.503096      1.226563     -2.433539
Ti       9.56097      5.82821     15.43562         0.112050     -1.438296      0.578932
Ti       9.53641      5.75444      6.73444         0.753113      0.262277      0.044222
Ti       9.59245      5.80432     10.93772         1.400631     -0.239010     -0.599142
Ti       9.67184      9.61029      2.28748        -0.328981     -0.620686     -0.486726
Ti       9.61242      9.66544     15.51698        -1.281530     -1.200759     -1.926794
Ti       9.59537      9.57143      6.64063        -0.139574     -0.010100      0.146821
Ti       9.53901      9.58047     11.07576         2.311692     -0.209627     -0.065717
O       1.93164      1.76140      0.60358         0.354223      0.794719      0.164012
O       1.86244      1.99176     13.64763         0.128070      0.041684      0.079342
O       2.01396     13.42888      0.49351         0.185814     -0.227500      0.040699
O       1.86772     13.52689     13.46079         0.303370     -0.292038      0.787459
O      13.29058      1.88804      0.54414         0.346205     -0.071562     -0.376186
O      13.45117      1.91875     13.68497        -0.418204      0.131592      0.511226
O      13.57509     13.32178      0.55114        -0.359478      0.025081      0.733266
O      13.32821     13.40701     13.70378         0.229068     -0.057513      0.008844
O       1.76989      1.87527      4.93086         0.601643      0.334081      0.496810
O       1.89462     13.46125      4.92461         0.263377     -0.154240      0.493656
O      13.39238      1.84170      4.85988         0.274227      0.052929      1.572945
O      13.47895     13.49744      4.93668        -0.337787     -0.231657      0.793500
O       1.94434      1.96585      9.18219        -0.294048     -0.094890      1.989274
O       1.74721     13.52576      9.37652         0.568049     -0.082922      0.038878
O      13.30309      2.00307      9.20785         0.045944     -0.171912      1.373203
O      13.49252     13.39451      9.38465        -0.223606      0.120918     -0.277544
O       1.99203      5.77593      0.51560        -0.031842      0.157555      0.716697
O       1.80329      5.77120     13.69965         0.227573     -0.127804      1.144667
O      13.27367      5.73217      0.60639         0.065504     -0.001252      0.223490
O      13.33236      5.73390     13.75879         0.371855     -0.127018      0.656861
O       1.79665      5.81606      4.90443         0.090156     -0.285753     -0.097289
O      13.58169      5.59092      4.85357        -0.246904      0.695577      0.100150
O       1.85006      5.77712      9.19787         0.276678      0.331699      1.398834
O      13.47675      5.83973      9.20551        -0.006441     -0.618250      1.012239
O       2.05637      9.48899      0.49449        -0.278148      0.407606     -0.405708
O       1.97822      9.72915     13.64799        -0.001087     -0.700810     -0.435800
O      13.50773      9.64100      0.54119        -0.042019      0.086309      0.496951
O      13.40078      9.60726     13.72370         0.417049     -0.092558      0.028290
O       1.95214      9.69251      4.79044         0.126268     -0.161638      0.959231
O      13.48973      9.65307      4.85182        -0.112350     -0.099355      0.822643
O       1.99125      9.56438      9.19775        -0.096893      0.242510      1.805949
O      13.45911      9.57161      9.26888        -0.044537      0.078015     -0.748799
O       5.73804      1.80247      0.56588         0.177582      0.021785      0.499937
O       5.83696      2.01387     13.51892        -0.432127      0.022151      1.101518
O       5.63143     13.55704      0.54719         0.359858     -0.243092      0.894399
O       5.76498     13.29235     13.42086        -0.283914      0.466916      1.244028
O       5.73392      1.96976      4.89333        -0.213722      0.221833      1.724001
O       5.69153     13.44264      5.09214         0.320731     -0.054396     -0.098666
O       5.79127      1.97320      9.17618        -0.125593     -0.195770      1.540258
O       5.82086     13.54972      9.13969        -0.330671     -0.351475      1.441974
O       5.87632      5.73122      0.64080        -0.631920     -0.014355      0.225163
O       5.58535      5.72247     13.61094         0.696790      0.230984      0.476768
O       5.87767      5.64227      4.80315        -0.705927      0.004908      0.688710
O       5.68890      6.02157      9.26670         0.185754     -0.573651      1.730109
O       5.78207      9.60573      0.58276        -0.062666      0.040874      0.280259
O       5.63863      9.47108     13.62227         0.124486     -0.020485      0.199575
O       5.71774      9.71107      4.93571         0.163916     -0.069681     -0.549057
O       5.72334      9.36034      9.10546         0.250009      0.580945      2.138474
O       9.49625      1.85701      0.55911         0.111808     -0.451748      1.595607
O       9.54810      1.94203     13.57338        -0.344285     -0.075653      0.216344
O       9.66850     13.44188      0.55133        -0.939791      0.077241      0.946480
O       9.60352     13.30495     13.64034        -0.119215      0.320065      0.603724
O       9.60434      1.94252      4.90551        -0.303248      0.365792      0.922024
O       9.46935     13.52587      4.94578         0.035742     -0.714715     -0.470451
O       9.64978      1.80537      9.21938        -0.158873      0.348091      1.136016
O       9.77629     13.44496      9.24927        -0.816319     -0.259748     -0.292648
O       9.56781      5.76223      0.51649        -0.018017      0.001168      1.746318
O       9.71694      5.85936     13.65349        -0.914682     -0.367272      0.135117
O       9.47434      5.60237      4.98861         0.129471      0.373301     -0.411659
O       9.76635      5.90803      9.15156        -0.673175     -0.016486      0.586941
O       9.70532      9.61893      0.47252        -0.399146     -0.146224      1.226808
O       9.47784      9.55853     13.72784         0.291875      0.085328      0.098863
O       9.53226      9.60538      4.86793         0.116134      0.243486      0.130757
O       9.77340      9.59453      9.29629        -0.940637      0.100367      0.237088
O       3.81442      1.93433      2.82142         0.658557     -0.389916     -0.184502
O       3.82006      1.88881     15.75511         0.186617      0.680773     -0.080756
O       3.86678     13.40963      2.87758         0.150357      0.507709     -0.446120
O       3.85754     13.46835     15.76767        -0.186370      0.329079     -0.464816
O      15.35413      1.84237      2.70521         0.158958      0.093119     -0.004877
O       0.00341      1.94215     15.91092        -0.191397      0.185248     -0.471839
O       0.08367     13.37172      2.68607        -0.674263     -0.164867     -0.022920
O       0.05616     13.47376     15.74907        -0.269590     -0.804582     -0.154857
O       3.81723      1.97121      7.22601         0.014187     -0.101845     -0.999600
O       3.79934     13.54440      7.17334         0.513437     -0.525089     -0.109955
O      15.34349      1.92571      7.09876        -0.453302      0.196230     -0.141540
O       0.00357     13.48827      7.09891        -0.495777     -0.027838      0.259036
O       3.76462      2.04855     11.45424         1.539527     -0.804452     -0.409928
O       3.85262     13.57394     11.30117        -0.102878     -0.476647      0.272810
O      15.26683      1.81696     11.29602         0.337691      0.588317      0.452007
O      15.31996     13.53676     11.36842         0.174638     -0.608711      0.860895
O       3.74570      5.80206      2.79907         1.751567     -0.228927     -0.026094
O       3.85596      5.65907     15.88636         0.078415     -0.269568     -0.303576
O       0.02738      5.72728      2.65260        -0.684008      0.398898      0.263581
O      15.27661      5.67873     15.96264         0.550354      0.768342     -0.244743
O       3.73459      5.70504      7.05824         1.121060      0.308214     -0.514884
O      15.35658      5.74177      7.08415         0.250517     -0.120161      0.138683
O       3.75495      5.81927     11.42430         1.394340      0.006720      0.147411
O       0.02161      5.73870     11.41657        -1.215192      0.212812      0.251951
O       3.84610      9.40279      2.71069         0.616150      0.723008      0.053854
O       3.92992      9.58170     15.85838        -1.946306     -0.199019      0.072591
O       0.14154      9.79981      2.60618        -1.977294     -0.429345     -0.090854
O       0.06808      9.54224     15.83573         0.078354      0.046742     -0.102407
O       3.82112      9.76790      7.16127        -0.217794     -0.685830     -1.039366
O       0.02623      9.66193      7.11911         0.571146     -0.241021     -0.461571
O       3.89676      9.65158     11.33683        -0.496754     -1.050709      0.044543
O      15.31107      9.61177     11.43479         1.119886      0.139560      0.186522
O       7.66334      1.83157      2.70952        -0.110021      0.334987     -0.001424
O       7.63935      1.75966     15.79086        -0.316883     -0.258468      0.168550
O       7.63583     13.48393      2.74743         0.294835     -0.332906     -0.116203
O       7.56880     13.44085     15.70432         0.420627     -0.090413      0.382478
O       7.59083      2.02581      7.11223         0.741857      0.023783     -0.022698
O       7.63869     13.53461      7.23265         0.488207     -0.629769     -0.271936
O       7.66490      1.97776     11.41000        -0.166855     -0.210487      0.055255
O       7.67917     13.39050     11.35078         0.129261      0.339649     -0.007333
O       7.72319      5.68403      2.72645        -1.150204      0.494718      0.118402
O       7.61936      5.86997     15.88925        -0.121597     -0.379237     -0.755286
O       7.62986      5.93876      7.12158        -0.252373     -0.805164     -0.215996
O       7.74890      5.80245     11.26577        -1.122659      0.097877      0.635077
O       7.60435      9.57594      2.75426         1.343163     -0.095541     -0.035638
O       7.65630      9.58385     15.75589        -0.745239     -0.229961      0.622646
O       7.66695      9.57620      7.11989         0.549826      0.119653     -0.165663
O       7.67200      9.63188     11.40542        -0.583231     -0.457078     -0.143398
O      11.56637      1.92275      2.73960        -0.882647      0.136032     -0.054678
O      11.42364      1.82808     15.86894         0.016493     -0.016823     -0.393313
O      11.48809     13.33955      2.59212         0.130316      0.269075      0.775051
O      11.45732     13.28589     15.84715         0.600321      0.520235     -0.180230
O      11.48128      2.00835      7.12336        -0.003813     -0.418290     -0.551073
O      11.44219     13.40386      7.06915         0.738064      0.299953     -0.190887
O      11.44551      1.92715     11.57534         0.607934     -0.249844     -0.350294
O      11.46853     13.45406     11.37343         0.927696     -0.266297      0.836481
O      11.50532      5.62947      2.86717         0.019489      0.765995     -0.417029
O      11.39421      5.62246     15.88371         0.421637      0.427506      0.139190
O      11.59911      5.89020      6.90812        -0.864057     -0.472341      0.195790
O      11.49579      5.71848     11.42255         0.803924      0.079785      0.101187
O      11.53646      9.65739      2.73521        -0.338804     -0.357037     -0.366765
O      11.51658      9.65709     15.75398        -0.191446      0.195463      0.453042
O      11.53023      9.52261      7.11848         0.159171      0.717988     -0.702613
O      11.48990      9.56522     11.47959        -0.019491      0.750266      0.045175
O       1.87980      3.85333      2.70096         0.404476     -0.377069      0.048010
O       1.79305      3.86365     15.96754         1.244600     -0.941259     -0.604786
O       1.98983     15.27745      2.78801        -0.123071      0.571058     -0.133725
O       1.85127     15.34715     15.95642         0.721614      0.472000     -1.431441
O      13.52602      3.82679      2.68988        -0.425765     -0.293646     -0.032628
O      13.33739      3.79179     15.88892         0.139624     -0.133652      0.230229
O      13.46590     15.32327      2.77160        -0.265659     -0.453791     -0.326746
O      13.54669     15.30497     15.80340        -1.140728      0.180714     -0.058379
O       1.94648      3.87789      7.23359        -0.987324     -0.386897     -1.326518
O       1.87455      0.04292      7.13515         0.252038      0.200446     -0.146870
O      13.44599      3.82795      7.06233         0.039226     -0.311104     -0.049964
O      13.39484     15.35622      7.20296        -0.037834      0.167501     -0.641327
O       1.80626      3.85296     11.46043         0.369000      0.175786     -0.177881
O       1.89874      0.05761     11.55574         0.335627      0.092618     -0.324895
O      13.38238      3.78541     11.43930         0.239447      1.038232     -0.001814
O      13.31937      0.04065     11.53432        -0.125351     -0.681331     -0.094021
O       1.83790      7.68633      2.71988         0.072808      0.183961     -0.083187
O       1.99906      7.65815     15.82975        -0.180397      0.027624     -0.111508
O      13.55691      7.76063      2.76806        -0.700912     -0.558857     -0.322137
O      13.24937      7.65090     15.88370         0.686858     -0.070302      0.022936
O       2.00998      7.72393      7.02621        -0.493288      0.326177     -0.617376
O      13.58363      7.64222      7.07329        -0.561361      0.702061     -0.565060
O       1.80132      7.71645     11.47851         0.788485      0.088512     -0.061190
O      13.35462      7.70009     11.44287         0.745362     -1.104277      0.027753
O       2.09158     11.50343      2.63849         0.131038     -0.063326     -0.005812
O       2.10778     11.59366     15.64767        -0.614015     -1.048776      0.388275
O      13.36033     11.53823      2.76694         0.706137     -0.430591      0.075938
O      13.49793     11.48348     15.83607         0.091678     -0.103670      0.252566
O       1.93739     11.62351      7.16197         0.055238     -0.882355     -0.306838
O      13.51727     11.49864      7.04301        -0.518174      0.334691      0.283374
O       1.98526     11.48938     11.38742        -0.508869      0.086525      0.156251
O      13.43314     11.49283     11.58046         0.011825      0.616355     -0.309139
O       5.62418      3.78387      2.70454         0.698181      0.264744     -0.192346
O       5.93018      3.72383     15.85903        -0.937669      1.062488     -0.284634
O       5.85012     15.33104      2.90806        -1.189514      0.459212     -0.860042
O       5.72091     15.35220     15.66846        -0.074664     -0.331749      0.046170
O       5.68634      3.95511      7.18343         0.222103     -0.469764     -0.712687
O       5.76663      0.08545      7.10786        -0.082346     -0.237924     -0.046766
O       5.84873      3.89835     11.36078        -0.612797     -0.006844      0.244571
O       5.77595     15.35398     11.47634        -0.058408      0.917593     -0.546997
O       5.75934      7.58590      2.83569         0.254932      0.842581     -0.286540
O       5.68807      7.62994     15.95585         0.091462     -0.439413     -0.835825
O       5.59312      7.67733      6.93007        -0.062153     -0.246970     -0.226318
O       5.82528      7.70513     11.58505        -0.454808     -0.455721     -0.266220
O       5.69491     11.55817      2.72251         0.295603     -0.515432      0.029940
O       5.67488     11.49618     15.70810         0.303604      0.203300      0.179831
O       5.82874     11.48324      7.16274        -0.217993      1.167958      0.242458
O       5.71564     11.49573     11.29762         0.176187     -0.397727     -0.279340
O       9.50932      3.84307      2.59694         0.535941     -1.326688      0.518765
O       9.41234      3.75289     15.76496         0.000592      0.264642     -0.038582
O       9.72242     15.35371      2.84727        -0.808483     -0.177382     -0.586438
O       9.58737     15.23464     15.72889        -0.055989      0.908631      0.338575
O       9.54626      3.87398      7.20749        -0.135086      0.195645     -0.357107
O       9.52107      0.03262      7.08738         0.074426      0.317997     -0.008189
O       9.68072      3.84271     11.22578        -0.649682      0.499827      0.687650
O       9.63165      0.01656     11.49261        -0.461786     -0.607106     -0.175198
O       9.63377      7.67574      2.81510        -0.030904      0.120768     -0.394612
O       9.59089      7.69706     15.83182         0.173361     -0.063705      0.131933
O       9.58958      7.75053      7.07563         0.042912     -0.690003     -0.253620
O       9.69799      7.68943     11.54075        -1.125926     -0.134509     -0.359297
O       9.52227     11.48962      2.66874        -0.103339     -0.164050      0.340413
O       9.45591     11.48792     15.88392         0.409497      0.894584      0.088414
O       9.61694     11.54934      7.18308        -0.728273     -0.674346     -0.537134
O       9.56935     11.50392     11.49138         0.200852     -0.025993     -0.575070
