  # total energy = -7880.73549408 
CRSYTAL
PRIMVEC
    15.3600000000000000    0.0000000000000000    0.0000000000000000
     0.0000000000000000   15.3600000000000000    0.0000000000000000
     0.0000000000000000    0.0000000000000000    17.440000000000000
PRESSURE
0.335013 0.235076 4.84827 0.272208 0.240809 -0.019299
PRIMCOORD
320 1
Pb       3.80706      3.76115      4.39725         0.362698      0.315950     -0.396125
Pb       3.84191      3.73189     17.40322        -0.220439     -0.021704     -0.243139
Pb       3.76234     15.29353      4.41426         0.263791      0.137365     -1.060203
Pb       3.72649     15.30643     17.34019         0.415764      0.246075     -0.428704
Pb       0.06574      3.74171      4.36074        -0.404099      0.228399     -0.350005
Pb       0.13635      3.85958      0.04806        -0.249434     -0.204254     -0.889579
Pb       0.06681     15.29062      4.30175        -0.351503      0.458387     -0.193636
Pb      15.17721     15.25756     17.43800         0.745905      0.237996     -0.386516
Pb       3.72340      3.85852      8.74588         0.156583     -0.372431     -1.005215
Pb       3.84544      0.02149      8.73237         0.116448      0.119016     -0.678531
Pb      15.16873      3.98016      8.69845         0.414919     -0.324239     -0.370229
Pb      15.19437      0.09953      8.77947         0.354315     -0.249289     -1.095310
Pb       3.80048      3.75623     12.93485         0.133392     -0.176729      0.288869
Pb       3.70280     15.32247     12.89516         0.520964      0.075531      0.309162
Pb       0.04009      3.70070     13.12911        -0.593798      0.672329     -0.844889
Pb      15.35746     15.30330     13.01703        -0.282136     -0.156691     -0.366894
Pb       3.84414      7.64159      4.31855         0.105501      0.205865     -0.250987
Pb       3.70742      7.54060     17.38135         0.532228      0.418857     -0.277940
Pb       0.13099      7.79179      4.31818        -0.226472     -0.454787     -0.319669
Pb      15.19605      7.64446     17.38680         0.190705      0.177039     -0.613895
Pb       3.87446      7.71213      8.73483        -0.068056      0.030552     -0.712630
Pb      15.34035      7.66106      8.72022         0.001521     -0.261478     -0.617945
Pb       3.78602      7.55424     12.98973         0.066181      0.915402     -0.100274
Pb       0.01596      7.59539     13.15632        -0.228233      0.100371     -0.811894
Pb       3.74143     11.53984      4.32406         0.174219     -0.368137     -0.492948
Pb       3.89122     11.46509     17.34423        -0.045226      0.350538     -0.142839
Pb      15.33116     11.60602      4.28315         0.264229     -0.163298      0.192707
Pb      15.21622     11.52767     17.31281         0.405004     -0.241092     -0.568921
Pb       3.81202     11.54238      8.72875         0.637586     -0.036837     -0.491845
Pb      15.26879     11.40598      8.76068        -0.039502      0.543146     -1.039464
Pb       3.85846     11.43849     12.97409         0.138282      0.015105     -0.109363
Pb       0.14936     11.51520     13.10223        -0.245753      0.062363     -0.647912
Pb       7.73058      3.66402      4.38127        -0.341743      0.470387     -0.882128
Pb       7.57298      3.82772      0.00543         0.257564     -0.270734     -0.368702
Pb       7.75812     15.30803      4.40816        -0.594389     -0.346075     -0.632647
Pb       7.53266     15.32712     17.40043         0.177361      0.157694     -0.475079
Pb       7.65482      3.86333      8.67156        -0.131894     -0.551758     -0.636598
Pb       7.65344     15.30724      8.64872         0.067824      0.431914     -0.201564
Pb       7.81981      3.97702     13.14544         0.048815     -0.413668     -0.804304
Pb       7.56368      0.18565     12.99251         0.564982     -0.113084     -0.564425
Pb       7.69292      7.53356      4.30999         0.030799      0.344649     -0.655717
Pb       7.53532      7.71167     17.43317         0.244143     -0.192553     -0.548578
Pb       7.65060      7.74877      8.69163         0.154027      0.069983     -0.735777
Pb       7.59909      7.66317     12.96599         0.525517      0.023937     -0.067426
Pb       7.71014     11.42427      4.39361         0.133292      0.104741     -0.817448
Pb       7.57669     11.55565     17.40065         0.121351      0.140419     -0.000387
Pb       7.64162     11.54501      8.68302         0.191921     -0.054559     -0.692931
Pb       7.74020     11.52965     12.98834         0.107918     -0.058322     -0.604448
Pb      11.45373      3.73146      4.29418         0.324908      0.459711     -0.453634
Pb      11.63329      3.80451      0.08295        -0.362978      0.036608     -0.751900
Pb      11.53108     15.23509      4.33156         0.650492      0.351792     -0.009773
Pb      11.34995     15.24599      0.03737         0.026848      0.440684     -1.127684
Pb      11.40904      3.99837      8.70265         0.744518     -0.451577     -0.972618
Pb      11.45429     15.33995      8.67717         0.336902      0.373055     -0.732260
Pb      11.59249      3.70913     13.24968         0.252919      0.050763     -1.075111
Pb      11.52868     15.33661     13.01771         0.107163      0.139576     -0.172885
Pb      11.48066      7.68164      4.22406        -0.050295     -0.380769     -0.556325
Pb      11.48641      7.62240      0.06119         0.122701     -0.214686     -0.805570
Pb      11.52638      7.69905      8.69461         0.309220     -0.358402     -0.503878
Pb      11.41985      7.62904     13.11592         0.487058      0.102912     -0.669846
Pb      11.56409     11.42166      4.30313        -0.353019      0.392976     -0.188422
Pb      11.33488     11.45639     17.40396         0.334991      0.392745     -0.849587
Pb      11.57120     11.52105      8.71764        -0.066686      0.247906     -0.773925
Pb      11.52665     11.45980     13.02990         0.124913     -0.058436     -0.541203
Ti       1.88869      1.94238      2.24487        -0.248271     -0.690201      0.769136
Ti       1.88708      1.87985     15.35086        -0.038179     -0.029205      5.157032
Ti       1.89847     13.40437      2.18419         0.337919      0.487984      1.447280
Ti       1.93144     13.43946     15.32440        -0.022309      0.423346      0.041076
Ti      13.40915      1.87907      2.25649         0.143483     -0.501785      2.686227
Ti      13.41351      1.87974     15.48447        -0.449197      0.277025     -0.531788
Ti      13.37134     13.30738      2.23022         0.289228      1.645991      2.410733
Ti      13.41200     13.48571     15.24452        -0.575070     -0.482940      1.875373
Ti       1.89191      1.87432      6.61194        -0.588284      0.073323      1.945645
Ti       1.97253     13.39127      6.71370        -1.919972      0.908218      1.991918
Ti      13.46847      1.98854      6.62306        -0.383685     -0.703016      2.122503
Ti      13.45948     13.43918      6.61695         0.804741      0.050555      2.123110
Ti       1.84908      1.90505     10.92465        -0.075621      0.528289      0.873464
Ti       1.97311     13.42354     10.89256        -0.948627     -0.172995      1.464922
Ti      13.45455      1.92464     10.98027        -0.729985      0.399418      1.540024
Ti      13.49227     13.38300     10.97097        -0.224708      0.228890      3.065898
Ti       1.94884      5.74817      2.28123        -0.641052      0.104922      2.763174
Ti       1.91737      5.75923     15.32361        -0.489978     -0.847200      2.047424
Ti      13.50533      5.72356      2.26985        -0.381025      0.155609      0.601803
Ti      13.46003      5.75676     15.29099        -0.345263      0.025890      2.875837
Ti       1.96835      5.73155      6.54621        -1.174384     -0.131020      1.276653
Ti      13.47830      5.83632      6.55170        -0.319867     -1.200332      2.085399
Ti       1.97612      5.76430     10.99890        -2.293892     -0.062036      3.536141
Ti      13.43966      5.78956     11.05573         0.525313     -0.716723      0.736081
Ti       1.97525      9.60191      2.18129        -0.138662      0.013045      1.240045
Ti       2.00870      9.57192     15.38677        -0.985506      0.303284      1.768990
Ti      13.49693      9.53246      2.26614        -0.021547      0.090247      0.756799
Ti      13.41352      9.62925     15.34405         0.427842     -0.374963      1.816511
Ti       1.97346      9.58409      6.77773        -0.558543     -0.219401      0.458554
Ti      13.42552      9.55480      6.56501         0.970048      1.019880      2.417052
Ti       1.94409      9.62112     10.93647         0.246789     -0.637375      5.485210
Ti      13.54013      9.55240     11.06069        -0.622586     -0.133590      1.559427
Ti       5.66342      1.85383      2.35106         0.518548     -0.151033      1.321301
Ti       5.76386      1.92664     15.22588        -0.656156      0.118089      0.707484
Ti       5.70267     13.38152      2.29557         1.166656      0.432800      0.417449
Ti       5.76242     13.47003     15.17849        -0.543704      0.231588      3.748144
Ti       5.68670      1.92206      6.60040         0.843681      0.143533      1.845958
Ti       5.71838     13.44774      6.58298         0.696066      0.047110      2.009066
Ti       5.70878      1.96850     10.99385         1.187814     -0.998306      0.127282
Ti       5.78820     13.43973     10.99292        -0.110181      0.242934      1.871755
Ti       5.75299      5.70153      2.27195         0.447131     -0.198687      2.126170
Ti       5.74814      5.74154     15.36778        -0.352737     -0.190454      2.361394
Ti       5.75463      5.81920      6.71695        -0.105538     -1.071881      0.625116
Ti       5.73094      5.70085     10.98623         1.464196      0.417789      2.128584
Ti       5.75985      9.57040      2.31809         0.909759      0.127087      2.480601
Ti       5.78179      9.68819     15.29769        -0.121388     -1.201969      2.348765
Ti       5.78487      9.60473      6.62243         0.600476      0.029986      1.968289
Ti       5.81391      9.57550     11.02042        -0.376403      0.545665      0.675993
Ti       9.54819      1.84976      2.32517         1.020044      0.819260     -0.114913
Ti       9.57963      2.00885     15.37322         0.191022     -1.591997      2.977148
Ti       9.59705     13.46814      2.23245        -0.968996     -0.603460      1.194507
Ti       9.47236     13.44580     15.29407         0.916102      0.992646      2.758760
Ti       9.56929      1.95222      6.65995         0.669971     -1.024562      1.508917
Ti       9.63566     13.42613      6.64625         0.283271     -0.108572      1.316926
Ti       9.66890      1.97893     10.95586        -0.750226     -0.045007      1.910310
Ti       9.61817     13.46748     11.04203         0.317959      0.017790      0.061892
Ti       9.62524      5.74225      2.18650        -0.647926      0.014116      1.957780
Ti       9.58342      5.77650     15.44057         0.358910     -0.263353      1.055076
Ti       9.56452      5.77715      6.55771         0.595430     -0.167061      1.999413
Ti       9.58725      5.80035     10.89972         1.315240     -0.319062      2.713705
Ti       9.59102      9.67837      2.27586        -0.419891     -0.824764      3.577426
Ti       9.58937      9.57813     15.33771        -0.075785      0.662416      0.720267
Ti       9.72274      9.54761      6.56456        -1.364783      0.797697      0.461221
Ti       9.65871      9.55384     10.88889         0.321116      0.970725      3.027113
O       1.95200      1.96310      0.50904        -0.132886     -0.149413     -0.284558
O       1.99008      1.88198     13.72160        -0.157677      0.097077     -5.137006
O       1.88559     13.49156      0.46827        -0.023009     -0.316886     -0.760523
O       1.91209     13.52977     13.52428        -0.042327     -0.243500      0.601655
O      13.28196      1.97415      0.57814         0.471954      0.019267     -2.504467
O      13.30438      1.86419     13.67775         0.501533      0.108501      1.098259
O      13.48743     13.32512      0.54359         0.049012     -0.061459     -1.930429
O      13.53214     13.59247     13.52973         0.047253     -0.175179     -0.854487
O       1.79187      1.90552      4.88919         0.343993     -0.415030     -1.764557
O       1.98235     13.34838      4.98314         0.341150      0.041113     -1.484100
O      13.52939      1.91032      4.90917        -0.073599      0.029715     -1.148615
O      13.41121     13.40124      4.90861         0.091115      0.039457     -1.839690
O       1.84734      1.99150      9.21470         0.421059     -0.019553     -0.598178
O       1.82061     13.40149      9.17839         0.472390     -0.141457     -0.193243
O      13.47454      1.94998      9.24805        -0.060032      0.355626     -0.584804
O      13.48664     13.40605      9.29354        -0.105860     -0.040999     -2.440457
O       1.96746      5.59321      0.60599        -0.165245      0.549750     -2.431120
O       1.83232      5.71501     13.60874         0.496864      0.119064     -1.377491
O      13.39410      5.80885      0.48843         0.199753     -0.064115      0.115255
O      13.49052      5.86866     13.60725         0.007270     -0.514930     -2.165066
O       1.84237      5.80475      4.81817         0.338790      0.111764     -0.683510
O      13.46693      5.82195      4.86081        -0.108918     -0.030822     -1.135869
O       1.89593      5.63523      9.36116         0.303379      0.161205     -3.694299
O      13.52064      5.74369      9.26897        -0.476736      0.192616     -0.230090
O       2.04222      9.71795      0.46285        -0.112167     -0.414676     -0.425832
O       2.05974      9.55069     13.67883        -0.080946      0.136551     -1.183505
O      13.49835      9.56796      0.52360        -0.159503      0.040867     -0.784373
O      13.41948      9.57761     13.65954         0.132193      0.079748     -2.089611
O       2.01378      9.54677      5.06397         0.037097      0.449519     -1.497708
O      13.50732      9.63934      4.87341        -0.184794     -0.182578     -1.637905
O       1.91896      9.53014      9.30937         0.125656      0.146570     -4.839542
O      13.43189      9.47943      9.34123         0.097851     -0.009468     -1.361076
O       5.71993      1.81470      0.63149        -0.002661      0.073072     -0.955600
O       5.73244      1.94998     13.42705         0.026754      0.135130      0.800398
O       5.75594     13.41490      0.53763        -0.016367      0.256700     -0.103864
O       5.84606     13.36393     13.51219        -0.082313      0.180060     -2.376670
O       5.68534      1.95591      4.87429         0.243353     -0.372846     -1.094176
O       5.69386     13.51760      4.88170        -0.261276     -0.315459     -1.326016
O       5.63337      1.87622      9.22797         0.162885      0.506730      0.124269
O       5.83230     13.47199      9.30353        -0.219660     -0.170325     -2.329010
O       5.72753      5.77587      0.56156         0.098018      0.069059     -1.149014
O       5.84268      5.67011     13.68397        -0.124059     -0.121390     -2.609182
O       5.75902      5.85825      5.01309        -0.090532      0.077896     -1.268452
O       5.78352      5.68505      9.30105        -0.273201      0.230320     -2.238710
O       5.82592      9.63286      0.64336        -0.102842     -0.391430     -2.991887
O       5.77353      9.67062     13.61844         0.047209     -0.069616     -2.633523
O       5.71148      9.50123      4.93140         0.080012      0.157324     -1.531409
O       5.85305      9.65786      9.29634        -0.108983     -0.428222     -1.000397
O       9.46983      1.87174      0.59382         0.144947     -0.077144     -0.434431
O       9.62328      1.95938     13.68692         0.193521      0.207978     -2.253401
O       9.54496     13.40961      0.47725         0.089821     -0.010726      0.086386
O       9.47102     13.49182     13.61126        -0.036428     -0.294286     -2.427631
O       9.59219      1.81179      4.91637        -0.014597      0.400619     -1.059158
O       9.70013     13.43880      4.93222        -0.153649      0.318022     -1.218137
O       9.48684      1.99624      9.25350         0.807215      0.278427     -1.042299
O       9.67183     13.38604      9.28163        -0.094175     -0.010612     -0.100633
O       9.52545      5.80105      0.46857         0.194858     -0.043349     -1.298739
O       9.51386      5.74408     13.68624        -0.047357      0.350843     -0.136983
O       9.71416      5.73149      4.86368        -0.410780      0.021423     -1.306406
O       9.63947      5.76842      9.18991        -0.175676     -0.046043     -1.434186
O       9.58316      9.68804      0.60945         0.002814      0.075375     -2.921599
O       9.61351      9.63686     13.59401        -0.136775     -0.220488     -0.045509
O       9.62561      9.58385      4.79921         0.340262      0.136991      0.123527
O       9.74506      9.68876      9.18752        -0.151444     -0.329049     -1.367564
O       3.78429      2.06988      2.78776        -0.153539     -0.672459     -0.257580
O       3.77521      1.96585     15.76728         0.934665     -0.698685     -0.017772
O       3.86093     13.36215      2.60049        -1.317062     -0.089409      0.663746
O       3.87811     13.52614     15.65097        -0.333942     -0.057461      0.074823
O      15.31800      1.82550      2.64913         0.863505     -0.192027      0.110669
O      15.31418      1.93787     15.80579        -0.250492      0.031957      0.110049
O       0.07774     13.56042      2.80941        -0.892001     -0.903610     -0.734669
O      15.33408     13.45608     15.78133         0.173428     -0.262957     -0.150783
O       3.84336      1.93467      7.02661        -0.815851     -0.138499      0.218986
O       3.85262     13.49620      7.14208         0.184679     -0.430507     -0.022821
O       0.06900      1.95525      7.14037        -1.204541     -0.015434     -0.208013
O      15.34821     13.38032      6.97319         0.160670     -0.017187      0.249934
O       3.83794      1.88096     11.37766        -0.824101      0.267759     -0.036507
O       3.86071     13.58701     11.29032        -0.532329     -0.442445      0.057663
O      15.28471      1.98878     11.52239         1.417747     -0.249508     -0.251270
O       0.06401     13.30114     11.42023         0.110158      0.332364      0.011140
O       3.82857      5.57847      2.68469         0.395867      0.643932      0.261316
O       3.76746      5.80563     15.82737         0.259881     -0.496905     -0.348297
O      15.32134      5.99713      2.63863         0.744709     -0.674115     -0.098506
O       0.00521      5.72269     15.80650         0.228025      0.002880      0.032540
O       3.80366      5.75615      7.10700         0.212278      0.296369      0.307562
O       0.03123      5.77304      7.09016        -0.378698      0.163365     -0.204352
O       3.89154      5.78121     11.41225        -0.707110     -0.225579      0.051879
O      15.35980      5.70395     11.42477         0.765421     -0.256329      0.349107
O       3.93573      9.63138      2.74844        -1.977617      0.042295      0.010779
O       3.89370      9.53694     15.81900         0.000468      0.158079      0.074316
O       0.09591      9.48780      2.64903        -0.598066      0.316389     -0.078618
O      15.35466      9.51723     15.80541         0.408043      0.919570     -0.105627
O       3.92988      9.58101      7.12226        -0.972660     -0.071075      0.621549
O       0.02472      9.60055      7.12979        -0.543428      0.042326      0.060342
O       3.85627      9.53197     11.42215         0.285363     -0.196806      0.031901
O       0.10537      9.76038     11.48468        -0.569157     -0.515361     -0.160760
O       7.76806      1.77186      2.77536        -1.208846      0.072791      0.399944
O       7.63867      1.99208     15.65878        -0.591537      0.092250      0.153911
O       7.65858     13.55789      2.72049         1.084628     -0.058745      0.030629
O       7.58597     13.38111     15.82368         0.161137      0.313055     -0.453815
O       7.68330      1.91299      7.18430        -0.805161      0.051906     -0.630655
O       7.68854     13.49448      6.97761        -0.303091     -0.402416      0.218760
O       7.78007      1.93675     11.35029        -0.599084      0.017488      0.352137
O       7.62163     13.45705     11.33879         2.043895     -0.295386      0.478993
O       7.70928      5.80165      2.68044        -0.715804     -0.325937      0.071402
O       7.61663      5.61703     15.84043         0.536741      0.509258     -0.020064
O       7.64437      5.90796      7.07622         0.657318     -0.628111      0.123373
O       7.79940      5.73946     11.33131        -2.094709      0.320800      0.490291
O       7.69227      9.63770      2.76565         0.017639     -0.436177      0.130379
O       7.63924      9.67760     15.77927         0.322320     -0.482118      0.011651
O       7.75796      9.64385      6.99656        -0.056930     -0.198350      0.388349
O       7.71316      9.65819     11.35559         0.013045     -0.059689      0.126659
O      11.57840      1.97171      2.68737        -0.997438      0.484770      0.530738
O      11.45503      1.74642     15.93906         0.253877      0.867739     -0.283113
O      11.52769     13.27969      2.66420        -0.087103     -0.249141     -0.134857
O      11.48917     13.52574     15.69873         0.008873     -0.337828     -0.065301
O      11.53114      1.89811      7.08559        -0.359591      0.491781     -0.134982
O      11.59938     13.48342      7.01654        -0.900910      0.213557      0.651166
O      11.63439      1.96339     11.64693        -1.427182     -0.194571     -1.087020
O      11.59553     13.40365     11.51416        -0.626735      0.096030     -0.271636
O      11.49232      5.66299      2.56738         0.711071      0.345949      0.377220
O      11.56003      5.82646     15.76146        -1.272656      0.079962      0.074237
O      11.44882      5.73357      7.06173         0.843894      0.069824      0.089633
O      11.54113      5.96225     11.34272        -0.798858     -0.178352      0.067097
O      11.54246      9.59675      2.64206        -0.048139      0.523613      0.148484
O      11.51140      9.65131     15.78916        -0.584064     -0.209781      0.228946
O      11.55244      9.65909      7.05438         0.408636     -0.604788     -0.083142
O      11.60652      9.41523     11.53025        -0.721833      0.612982     -0.500065
O       1.78458      3.84065      2.64342        -0.283421     -0.190525      0.449440
O       1.91215      3.78479     15.80215        -0.241674      1.223455     -0.059902
O       2.04137     15.31847      2.65457        -0.064198      0.416982      0.257112
O       1.82895     15.32893     15.79162         0.323305     -0.017408      0.108234
O      13.59151      3.86951      2.71862        -0.359452     -0.146011     -0.223443
O      13.32908      3.84170     15.78610         0.065683     -0.443323     -0.066152
O      13.30098     15.27915      2.61563         0.479367     -0.026208      0.084039
O      13.45891     15.35255     15.90130        -0.086058     -0.375854     -0.214651
O       1.86147      3.82547      6.75670         0.712926      0.663163      0.851845
O       1.81352     15.33419      7.13161         0.856385      0.001487     -0.365370
O      13.44349      3.86918      7.06685        -0.064214      0.519834     -0.193611
O      13.43872      0.08900      7.22121         0.315374     -0.836243     -0.556870
O       1.94951      3.78829     11.34490         0.341589      0.060805      0.717247
O       1.86603      0.02148     11.31835        -0.078205     -0.318283      0.095139
O      13.38074      3.86499     11.54097         0.122627      0.176878     -0.064372
O      13.49711     15.35919     11.31473         0.173419     -0.113869      0.199418
O       1.94683      7.68751      2.72492         0.998874      0.243210     -0.424237
O       1.88474      7.68963     15.83555         0.237672     -0.604159     -0.111401
O      13.39592      7.71537      2.72000        -0.297366     -0.364687     -0.100428
O      13.45956      7.66999     15.62933         0.031362      0.143164      0.933112
O       1.84709      7.68865      7.07989         0.812090     -0.443232      0.462249
O      13.42044      7.67869      7.06800        -0.095902      0.181390     -0.030804
O       1.83402      7.66906     11.39219         0.681908      0.004236      0.157147
O      13.60595      7.63073     11.52533         0.129814      1.036632     -0.065602
O       1.77255     11.49282      2.67155         0.972473      0.061717      0.082567
O       2.06226     11.58472     15.74799        -0.587282     -0.804968     -0.232220
O      13.54644     11.47882      2.71581         0.123988     -0.348147     -0.013083
O      13.45724     11.56205     15.60701         0.023835      0.122496      0.467564
O       1.98933     11.53316      7.25368         0.005951     -0.627288     -0.327114
O      13.44904     11.49223      7.06241        -0.082248     -0.225888      0.214614
O       2.07004     11.48612     11.51910        -0.124770      0.937007     -0.804324
O      13.43768     11.45967     11.29691        -0.182815      0.120532      0.558836
O       5.83058      3.76160      2.75517         0.390059      0.688596      0.022075
O       5.64995      3.76862     15.92706         0.356566      0.247586     -0.675701
O       5.76967      0.00523      2.83970        -0.817997     -0.079138     -0.135324
O       5.72040      0.06389     15.72743         0.426459     -0.317255     -0.423929
O       5.74301      3.82447      6.89311         0.252059      0.581941      0.884315
O       5.69788     15.34845      7.09517         0.236206     -0.013458     -0.207991
O       5.77057      3.86751     11.38616        -0.158320     -0.358653      0.108093
O       5.83356      0.05920     11.40637        -0.354413     -0.132740      0.046439
O       5.76903      7.61902      2.81610        -0.274214     -0.109340     -0.516349
O       5.71933      7.59053     15.63096         0.507630      1.254159      0.702044
O       5.78616      7.71709      7.23229        -0.304410     -0.077084      0.079507
O       5.78035      7.64177     11.43789         0.212458     -0.036241      0.020071
O       5.81690     11.51036      2.60930         0.066840      0.114470      0.831182
O       5.73815     11.54767     15.77518        -0.340869     -0.006523     -0.350023
O       5.75799     11.49891      7.02373        -0.019184      0.781167      0.158187
O       5.72368     11.50351     11.30898        -0.175823      0.052777      0.590699
O       9.53593      3.85327      2.72053         0.113835     -0.927731      0.170072
O       9.60876      3.85192     15.85343         0.213840      0.461989     -0.147213
O       9.91047     15.30411      2.70541        -1.167620      0.076538     -0.317697
O       9.46861      0.01211     15.80514        -0.161961     -0.472941      0.065611
O       9.55122      3.80809      6.98040        -0.183922      1.264435      0.354925
O       9.57726      0.05576      7.12335         0.247055     -0.906114      0.104716
O       9.58230      3.90357     11.51849         0.985770     -0.196969     -0.630036
O       9.73438      0.01400     11.34599        -0.285936      0.047836      0.073012
O       9.60205      7.65962      2.63237         0.339420      0.375736      0.120215
O       9.55064      7.73689     15.89585        -0.170647     -0.467889     -0.330995
O       9.67065      7.67677      6.91563        -0.068466      0.324215      0.477374
O       9.49736      7.76622     11.40787         0.201544     -1.138362     -0.230820
O       9.53421     11.57909      2.78152         0.226140     -0.280194     -0.245035
O       9.57963     11.54701     15.79461        -0.027598     -0.461463     -0.124976
O       9.73335     11.54453      6.93929        -0.417233     -0.203077      0.441371
O       9.71814     11.50283     11.43692        -0.401814     -0.067876      0.007375
