  # total energy = -7878.11306091 
CRSYTAL
PRIMVEC
    15.2000000000000000    0.0000000000000000    0.0000000000000000
     0.0000000000000000   15.2000000000000000    0.0000000000000000
     0.0000000000000000    0.0000000000000000    17.000000000000000
PRESSURE
7.78089 7.61198 0.374666 0.031883 0.042821 0.064382
PRIMCOORD
320 1
Pb       3.67916      3.93772      4.34810         0.172061     -0.574539     -0.771030
Pb       3.81910      3.91446      0.06497         0.242976     -0.754168     -0.047553
Pb       3.70393      0.11820      4.38553         0.237616      0.254827     -0.431828
Pb       4.01221     15.17496      0.06057        -0.827838      0.161690     -0.014176
Pb      15.17323      4.11815      4.34381         0.011127     -0.844480     -0.420771
Pb      15.14664      3.76389     16.94536         0.285625     -0.032828      0.331476
Pb       0.07994      0.17340      4.21046        -0.713584     -0.460126      0.227886
Pb       0.08592     15.15999     16.89545        -0.054319     -0.364147      0.551019
Pb       3.97990      3.58692      8.50803        -0.524284      0.451012     -0.526799
Pb       3.80979     15.10117      8.49639        -0.243659      0.069838     -0.457518
Pb      15.12877      3.76690      8.44631         0.230908     -0.194825      0.032153
Pb       0.01275     15.13869      8.71734        -0.282072      0.066942     -0.977236
Pb       3.78103      3.77311     12.75775         0.394777      0.208658     -0.236155
Pb       3.81996     15.05889     12.78461         0.624914      0.234754     -0.450118
Pb       0.14407      3.58351     12.80032        -0.595698      0.564186     -0.552685
Pb       0.03946     15.07231     12.72856        -0.543922      0.236137     -0.422759
Pb       3.72051      7.59492      4.31354        -0.236139      0.352166      0.110940
Pb       3.88509      7.68644      0.26725        -0.320949     -0.059720     -1.100563
Pb      15.13526      7.62744      4.14116         0.387887      0.191749      0.534694
Pb       0.13472      7.59552     16.93277        -0.678503      0.026142      0.370774
Pb       3.77483      7.52586      8.44058        -0.412126      0.295938      0.389420
Pb      15.00210      7.52838      8.49070         1.151145      0.518674     -0.203526
Pb       3.68672      7.52067     12.73627         0.149439      0.069658     -0.528288
Pb      15.09853      7.45623     12.73204         0.356873      0.127885     -0.458042
Pb       3.55949     11.62937      4.29595         0.595482     -0.898408      0.668060
Pb       3.96120     11.40445      0.07789        -0.697502      0.059840      0.031582
Pb      14.94851     11.56361      4.31129         0.853480     -0.292840     -0.127442
Pb       0.05958     11.45498     16.93122        -0.412566     -0.105728      0.049428
Pb       3.80570     11.44167      8.42724        -0.702724     -0.136074      0.415426
Pb      15.02951     11.25038      8.63034         0.268163      0.257917     -0.149806
Pb       3.62468     11.21006     12.85255         0.593509      0.031332     -0.588566
Pb      15.12180     11.28476     12.60646        -0.570610     -0.008442      0.306954
Pb       7.54531      3.73001      4.11660         0.435027      0.093415     -0.074689
Pb       7.66205      3.86747      0.05916        -0.704932     -0.410646     -0.107607
Pb       7.50592     15.19549      4.25126         0.667499      0.021420     -0.146232
Pb       7.57883     15.10533      0.09310         0.163146     -0.270665     -0.466672
Pb       7.81719      3.79337      8.20634        -0.804182     -0.309444      1.056683
Pb       7.52025     15.11885      8.42683         0.383730      0.497564      0.239490
Pb       7.44694      3.70730     12.67443         0.372322      0.443217      0.161438
Pb       7.61793      0.17609     12.67375        -0.039906     -0.785303      0.226971
Pb       7.66658      7.53027      4.41536        -0.047762      0.165768     -0.500698
Pb       7.51390      7.59527     16.97434        -0.012295     -0.239019      0.198449
Pb       7.63284      7.61774      8.43804         0.022363      0.097447     -0.316845
Pb       7.59439      7.57059     12.78947        -0.055056     -0.601049     -0.378854
Pb       7.52376     11.26159      4.11821        -0.011670      0.556524      0.978293
Pb       7.68932     11.43137      0.04233        -0.304215      0.506237     -0.204148
Pb       7.44061     11.46481      8.31922         0.728082     -0.438592      0.201722
Pb       7.49785     11.31261     12.70495         0.225177      0.530014      0.072493
Pb      11.45984      3.86057      4.04852        -0.268601     -0.420864      0.702100
Pb      11.48320      3.83413      0.01629        -0.344185     -0.756039     -0.299155
Pb      11.46589     15.18862      4.25691        -0.063210      0.400532     -0.189635
Pb      11.39748     15.05409     16.94334        -0.345803      0.359342     -0.374805
Pb      11.41365      3.66639      8.42404        -0.127609      0.293752     -0.229248
Pb      11.23452     15.14226      8.60250         0.477238      0.447123     -0.200080
Pb      11.37979      3.74355     12.74666        -0.077125      0.175527      0.025390
Pb      11.32998      0.07826     12.84576        -0.182903     -0.445003     -0.587134
Pb      11.54218      7.57054      4.11389        -0.783168     -0.050346      0.411868
Pb      11.31371      7.55290     16.93410         0.456000      0.215641     -0.197237
Pb      11.39428      7.59248      8.34649        -0.584310      0.016659      0.639238
Pb      11.26790      7.48337     12.61040         0.261591      0.180009      0.572181
Pb      11.46870     11.42727      4.21042        -0.563618     -0.254802      0.062534
Pb      11.47232     11.33708     16.92493        -0.198283      0.242548     -0.102284
Pb      11.29453     11.45767      8.66612         0.235798     -0.453788     -0.609994
Pb      11.30931     11.17835     12.88709         0.243749      0.493159     -0.488462
Ti       1.84173      1.96122      2.19890         0.588494      0.207429      0.296547
Ti       1.93262      1.83930     15.07883         1.051295      0.623540      0.266305
Ti       1.83165     13.32481      2.37235        -0.518293      0.299315     -2.235207
Ti       1.91549     13.22227     14.89664         0.279985      0.031849      0.985217
Ti      13.29875      1.92030      2.15739         0.242199     -1.282621      0.189375
Ti      13.31389      1.85633     14.95364        -1.384439      0.145670     -0.669397
Ti      13.22795     13.32025      2.12254         1.734977     -0.017229      0.359314
Ti      13.30766     13.31708     14.87479        -0.414969     -1.742555     -0.634911
Ti       1.79476      1.90492      6.48956         0.972194     -0.610569     -0.115163
Ti       1.76779     13.31662      6.64829         0.947004      0.186858     -0.912863
Ti      13.28987      1.88981      6.43611        -0.333071     -0.640664     -0.664947
Ti      13.26027     13.36312      6.54591         0.945145     -0.344084      0.251337
Ti       1.93354      1.92732     10.64246        -0.496358     -0.813709     -0.363926
Ti       1.96556     13.30129     10.80786        -0.413597     -1.049020     -1.753637
Ti      13.25912      1.91727     10.71190         0.346249     -0.422245     -0.434981
Ti      13.21674     13.29651     10.76604        -0.093202     -0.239911      1.539061
Ti       1.90796      5.77076      2.20838        -0.026041     -0.269777     -0.411784
Ti       1.91108      5.65139     15.03675         0.057310     -0.094981     -0.661400
Ti      13.30074      5.68564      2.07525         0.866678     -0.044117      0.456504
Ti      13.29783      5.62824     14.92517        -0.233266      1.172390     -0.474080
Ti       1.95903      5.63179      6.58509        -1.140474      1.244271     -0.466193
Ti      13.28374      5.70158      6.55852         0.178302     -0.179383     -1.550678
Ti       1.94513      5.64330     10.63468        -0.986695      0.601885     -0.524864
Ti      13.31878      5.65525     10.65502         0.026360     -0.398238      0.774853
Ti       1.81845      9.53718      2.31576         0.039079     -0.202210     -0.451646
Ti       1.82763      9.44796     15.02388         0.764612      0.048453     -0.437493
Ti      13.21634      9.47842      2.19667         1.069866      1.002360     -1.157029
Ti      13.22603      9.43834     15.02543         0.309905      0.391994     -0.974655
Ti       1.77874      9.52740      6.54491        -0.084977     -1.019049      0.754117
Ti      13.19570      9.55727      6.49177         0.305305      0.492886     -0.515515
Ti       1.84509      9.48389     10.74050         0.330271     -1.275024     -1.757457
Ti      13.15339      9.40487     10.70158         0.987582      0.726239     -0.649484
Ti       5.66666      1.90779      2.27031         0.542373      0.226441      0.137954
Ti       5.75052      1.91675     15.06691        -0.403342     -0.687199      0.090769
Ti       5.62255     13.30781      2.34746         0.887483     -0.002102      0.096684
Ti       5.65435     13.22034     14.98309         1.304274      0.510595     -0.602841
Ti       5.73803      1.88661      6.37385        -1.093381     -0.774429     -1.133652
Ti       5.70240     13.33849      6.41107        -0.902110     -0.150159     -0.538226
Ti       5.61835      1.82846     10.61383         1.885178      0.524283      0.343245
Ti       5.79180     13.23454     10.63219        -0.702419      1.159309     -0.319075
Ti       5.66541      5.72938      2.24167         0.710680     -0.522941     -0.218864
Ti       5.63439      5.69275     14.95735         1.024979      0.021727     -0.151812
Ti       5.70845      5.63902      6.39487         0.325128      0.365913     -0.324491
Ti       5.74976      5.69025     10.57943        -0.157006     -0.457719      0.843092
Ti       5.55000      9.46643      2.33473         0.618496      0.568501      0.220850
Ti       5.64063      9.53182     15.00725         0.005194     -0.903957     -1.071436
Ti       5.56017      9.43795      6.50931         1.023155      0.310080     -1.401967
Ti       5.70978      9.43180     10.72236        -1.933797      0.112391     -0.385256
Ti       9.53398      1.86032      2.08347        -0.874774      0.471322      0.660609
Ti       9.43855      1.89201     15.11479         0.770732     -0.402944     -0.926253
Ti       9.51032     13.28879      2.33903        -0.550751     -0.556053     -0.844585
Ti       9.50731     13.24100     14.85302        -0.808029      1.101036     -0.861161
Ti       9.50858      1.80286      6.39440         0.215358      0.352840     -0.939211
Ti       9.56214     13.31896      6.48647        -0.640835     -0.494705     -2.052001
Ti       9.50838      1.92148     10.73442        -1.187327     -1.080448     -0.648311
Ti       9.48332     13.28375     10.70710        -0.144289      0.108143      0.993305
Ti       9.44040      5.70055      2.12911         0.103807     -0.313818      1.187579
Ti       9.46622      5.65728     15.01269        -0.544321     -0.270978     -1.469485
Ti       9.54430      5.70663      6.36073         0.640669      0.320212     -1.131281
Ti       9.52434      5.60489     10.68812        -0.497234      0.704326      0.141062
Ti       9.39731      9.46749      2.20764         0.715350      0.049117     -0.114451
Ti       9.40474      9.48167     15.02477         0.450432      0.157009     -0.812748
Ti       9.48963      9.54295      6.46457        -0.600340     -0.421248      0.741755
Ti       9.36316      9.46990     10.69142         1.021098     -0.015513     -0.407878
O       1.90943      1.88651      0.40111        -0.406864     -0.170071      0.611172
O       1.84887      1.97104     13.26601         0.370818     -0.413471      0.274560
O       1.82935     13.26694      0.48547        -0.234890      0.029559      1.272659
O       2.00205     13.21031     13.11147        -0.229445      0.455236     -0.355062
O      13.22241      1.88709      0.37763         0.458479     -0.007881     -0.133468
O      13.26788      1.97302     13.07413         0.215901     -0.377050      1.651766
O      13.24404     13.24749      0.32873         0.135595      0.029950     -0.048845
O      13.41510     13.27215     13.09155        -0.686440      0.403616      0.281645
O       1.79853      1.91471      4.67080         0.448922      0.167163      0.477238
O       1.76121     13.31459      4.77829         0.479637      0.178880     -0.043748
O      13.20421      1.87449      4.60813         0.300889     -0.204013      0.866444
O      13.37593     13.38098      4.73684        -0.530660     -0.323288      0.446502
O       1.95305      1.86226      8.83885        -0.197803      0.373386      1.143795
O       2.01487     13.33550      8.93191        -0.686864     -0.099770      1.074535
O      13.34036      1.93584      8.85203        -0.512768     -0.012307      1.227742
O      13.29508     13.36225      9.02122        -0.168505     -0.347659     -0.828177
O       1.98782      5.88727      0.38654        -0.221414     -0.544868      0.574418
O       1.89546      5.62582     13.19321         0.021857     -0.101904      0.923283
O      13.27325      5.61191      0.31426         0.044229      0.242063      0.138039
O      13.29224      5.77500     13.07871         0.056350     -0.654325      1.810564
O       1.72837      5.71784      4.72118         0.853529     -0.513706      0.356248
O      13.21812      5.66569      4.69696         0.437501      0.299755      0.193650
O       2.07861      5.53685      8.82522        -0.759249      0.247514      0.577247
O      13.22359      5.65907      8.85201         0.220003     -0.018320     -0.431509
O       1.97788      9.36054      0.49722        -0.363339      0.545701     -0.022260
O       1.92071      9.51152     13.21848        -0.133560     -0.418211      0.259361
O      13.24646      9.61030      0.37461        -0.048664     -0.387674      0.155927
O      13.07529      9.50454     13.22126         0.705135     -0.616022     -0.447964
O       1.78831      9.47564      4.81136        -0.103426     -0.086758     -1.178699
O      13.21695      9.66480      4.60741         0.085471     -0.797769      1.242931
O       1.96946      9.41924      8.91838        -0.539587      0.108818      0.554491
O      13.23208      9.49645      8.83381        -0.227918     -0.367211      1.692805
O       5.73692      1.86885      0.47487        -0.364145     -0.309809     -0.297299
O       5.79880      1.86130     13.25956        -0.348542      0.074048      0.086715
O       5.69114     13.28691      0.52948        -0.129904      0.129365     -0.140110
O       5.70149     13.14851     13.20118        -0.282219      0.307380     -0.498740
O       5.73228      1.92282      4.50886         0.086376     -0.138538      1.422726
O       5.51277     13.29224      4.59486         0.552975      0.150864      0.911884
O       5.74387      1.86628      8.84023        -0.223980     -0.021947     -0.200673
O       5.75410     13.40794      8.76156        -0.008666     -0.479280      1.309599
O       5.66641      5.71490      0.41966        -0.202205      0.075232      0.058043
O       5.68364      5.60253     13.15591        -0.068113      0.193704      0.569326
O       5.67840      5.72411      4.57967        -0.124660     -0.097950      0.843931
O       5.68481      5.65809      8.79435         0.290092     -0.200602      0.353944
O       5.61308      9.52023      0.51010        -0.141125     -0.192910      0.295517
O       5.78511      9.58335     13.14735        -0.378130      0.069809      0.778568
O       5.68482      9.51138      4.69356        -0.505396     -0.367441      0.758643
O       5.62196      9.39519      8.93886         0.440967      0.103250     -0.500598
O       9.41757      2.00682      0.29164         0.802146     -0.423874      0.754910
O       9.35513      1.91238     13.24988         0.501950     -0.441390     -0.106420
O       9.49527     13.20289      0.50066         0.152250     -0.278312      0.690652
O       9.55887     13.33592     13.02012        -0.592683     -0.122707      1.215313
O       9.51922      1.72151      4.62186         0.053430      0.070176      0.095462
O       9.62410     13.36916      4.64056         0.143976      0.202699      0.940808
O       9.45011      1.89920      8.94197         0.277598      0.391352     -0.482399
O       9.47262     13.32329      8.89593         0.064988     -0.427564     -0.728058
O       9.38757      5.56239      0.36024         0.749727      0.513929     -0.618944
O       9.46446      5.75243     13.16139         0.100586     -0.132799      1.102897
O       9.54412      5.89241      4.52580         0.362884     -0.483786      1.242158
O       9.53785      5.51946      8.90565        -0.146094      0.298149     -0.248568
O       9.36308      9.64780      0.39679         0.582259     -0.461012      0.714032
O       9.43743      9.44340     13.16364        -0.306087      0.110006      0.971095
O       9.54234      9.30103      4.75022         0.029597      0.128294     -1.578355
O       9.37748      9.45108      8.88258         0.018562      0.245294      0.711674
O       3.86651      1.85187      2.58899        -1.771633      0.397945      0.021792
O       3.82779      2.01543     15.43361        -0.564511     -0.704769     -0.410332
O       3.79083     13.37365      2.54070        -1.357809     -0.122353      0.415309
O       3.78712     13.09975     15.31388        -0.574485      0.547522      0.094288
O       0.00512      1.95015      2.63202         0.160565     -0.155072     -0.762150
O      15.15323      1.84858     15.39487         0.704223     -0.284618     -0.371869
O      15.16427     13.28000      2.65779         0.172809      0.425556     -0.450941
O      15.18617     13.31240     15.20012         0.959543      0.357972      0.473438
O       3.80898      1.83280      6.65132        -0.383601      0.296875      0.304027
O       3.74340     13.36385      6.88030         0.541926     -0.217511     -0.346693
O      15.14045      1.80095      6.82721         0.074603      0.856802      0.060639
O       0.00366     13.18656      7.00146        -1.231148      0.056012      0.194784
O       3.81969      1.97653     10.97848        -1.231880     -0.296316      0.345200
O       3.77876     13.18381     10.97459         1.106413      0.357086      0.601719
O      15.17690      1.88936     10.99946         0.659299     -0.392937      0.195714
O      15.15042     13.29593     11.15416         0.659367      0.161205     -0.433201
O       3.77606      5.73077      2.53756        -0.338234     -0.117326      0.475152
O       3.83027      5.49289     15.26569        -0.992077      0.199447      0.077336
O       0.04598      5.79669      2.52108        -1.517505     -0.418454      0.003007
O      15.17659      5.75300     15.37315        -0.141394     -0.336714     -0.443146
O       3.83096      5.64025      6.72437         0.358038     -0.393948     -0.263451
O      15.17072      5.60182      6.84058        -0.378904      0.022331      0.333716
O       3.72391      5.71312     10.97402         2.031324     -0.352347      0.543113
O      15.19179      5.71574     10.97222         0.439256     -0.248962     -0.042078
O       3.70183      9.48187      2.75855         0.469475      0.036479     -0.273947
O       3.80425      9.55287     15.37577        -0.796754      0.020672     -0.161119
O      15.18632      9.40478      2.49381        -0.403297      0.053697      0.282060
O      15.11966      9.42336     15.25624         1.467734     -0.265664      0.423045
O       3.73031      9.33842      6.84708         0.286280      0.415057     -0.240612
O      15.06410      9.46509      6.99143         0.841974      0.161829     -0.469740
O       3.73645      9.49599     11.11835         1.211866      0.143534      0.377081
O      15.10882      9.45070     10.99922         0.064158      0.006822      0.281437
O       7.63785      1.93743      2.50726         0.282554     -0.307960      0.236032
O       7.63137      1.80147     15.51312        -1.057897     -0.269904     -0.505089
O       7.63924     13.24686      2.70879        -0.359030     -0.251742     -0.327953
O       7.56390     13.28550     15.40918         0.464390     -0.285874     -0.246557
O       7.58022      1.83556      6.67596         0.810511     -0.045423      0.283036
O       7.63326     13.35586      6.64398        -1.027877     -0.409729      0.371930
O       7.54040      1.91697     11.06092         0.397703     -0.195999      0.034108
O       7.59805     13.52696     10.93915        -0.947653     -0.698774      0.249323
O       7.61340      5.70683      2.53274        -0.672093      0.394821      0.057981
O       7.58921      5.75411     15.45366        -0.644609     -0.119188     -0.662184
O       7.65820      5.68358      6.54002        -0.401125     -0.036726      0.740361
O       7.61558      5.74877     11.03311        -0.712978     -0.593987     -0.276366
O       7.53979      9.41560      2.70635         0.099300      0.248067     -0.653818
O       7.55339      9.45835     15.50087        -0.197683      0.311991     -0.798409
O       7.56102      9.47434      6.73143        -0.390984     -0.046071      0.600607
O       7.53870      9.37222     11.06520         0.280586      0.333155      0.234641
O      11.39515      1.92367      2.53555        -0.094498     -0.084212     -0.281588
O      11.41269      1.97109     15.38831         0.131615     -0.270549     -0.444818
O      11.45394     13.27681      2.64592        -0.222802     -0.052216     -0.317017
O      11.37130     13.20071     15.15131         0.650076      0.206794      0.491691
O      11.38844      1.79045      6.76066         0.010501     -0.065303      0.456859
O      11.39695     13.33441      6.89404         0.146563     -0.023118      0.229693
O      11.36428      1.90362     11.08895         0.429197      0.306084      0.084087
O      11.30415     13.19146     11.00590         1.060911      0.110016     -0.097859
O      11.48075      5.66374      2.48252        -0.945714      0.042279     -0.306265
O      11.34592      5.57302     15.38096         0.617915      0.442875     -0.304347
O      11.42614      5.69447      6.81658        -0.846895     -0.082822      0.104510
O      11.41058      5.62692     11.09173        -0.101965      0.274338     -0.157642
O      11.40829      9.51543      2.46798        -1.129654     -0.310771      0.253343
O      11.37857      9.56425     15.26920        -1.799811     -0.361594      0.764898
O      11.34424      9.50393      6.94442         0.518801      0.183285     -0.334017
O      11.33077      9.46022     11.02200        -0.866885     -0.142404     -0.041724
O       1.90658      3.88695      2.61079         0.124677     -0.735364     -0.236760
O       1.83010      3.76456     15.50145        -0.207859      0.278288     -0.508340
O       1.93825      0.08317      2.67961        -0.416436     -0.757897     -0.320197
O       2.03541     15.14546     15.36659        -0.462262      0.002686     -0.451906
O      13.38621      3.74706      2.44662        -0.361912      1.764964      0.248783
O      13.36849      3.74892     15.33301        -0.106244      0.628273     -0.362476
O      13.40104     15.18422      2.45748        -0.593909      0.030471     -0.008150
O      13.19554     15.15305     15.28540         0.229506      0.869048     -0.117105
O       1.85954      3.74625      6.86764         0.035522     -0.211007     -0.231043
O       1.77193      0.01758      6.94106         0.343015     -0.231249     -0.258060
O      13.22545      3.77922      6.62913         0.200025     -0.439335      0.899783
O      13.38550     15.14044      6.94460        -0.356363      0.671729     -0.237371
O       1.93614      3.73927     11.13312        -0.469290      0.285134     -0.200686
O       1.90826     15.17527     11.11882         0.192211      0.692201      0.143203
O      13.35977      3.79921     10.99520        -0.474491     -0.336862      0.121036
O      13.11130     15.19652     11.13417         0.716066      0.151738     -0.202008
O       1.87562      7.60722      2.73695         0.359374      0.221296     -0.138109
O       1.95637      7.52362     15.33703         0.032503      0.800346     -0.287495
O      13.27689      7.58921      2.46697         0.043897     -0.502312      0.008555
O      13.17303      7.54899     15.39255         0.019367     -0.627298     -0.212308
O       1.80800      7.47947      6.79164         0.154333      0.736194      0.620825
O      13.24617      7.64089      6.77717         0.015070     -0.483433      0.020957
O       1.92166      7.55266     11.08075        -0.376468     -0.210546      0.177583
O      13.36431      7.53607     11.10608        -0.876064      0.538904     -0.516608
O       1.81337     11.39718      2.71313         0.256300      0.548740     -0.343259
O       1.83734     11.35509     15.21826        -0.298738      0.133515      0.500139
O      13.42664     11.38080      2.48714        -0.698311      0.711042      0.238365
O      13.30940     11.37568     15.11433         0.122042      0.533931      0.990763
O       1.94663     11.36276      6.80919        -0.010137      0.204713      0.384559
O      13.27847     11.41830      6.96904        -0.370532     -0.086417     -0.391421
O       1.82930     11.30528     11.02551        -0.083077      1.634920      0.489987
O      13.19824     11.32895     11.06865         0.356727      0.005772     -0.189466
O       5.69132      3.88925      2.58046        -0.076364     -1.247148      0.045913
O       5.72439      3.71680     15.34803         0.625696      1.328069      0.041591
O       5.79527      0.00665      2.68825        -0.358565     -0.275020     -0.720589
O       5.64877     15.08726     15.36158        -0.309416      0.968728      0.070096
O       5.76402      3.68074      6.72396        -0.308299      2.066680      0.176584
O       5.62992     15.18471      6.82026         0.547226      0.099578     -0.534967
O       5.68790      3.78069     11.03622        -0.272862      0.561884     -0.240535
O       5.58983      0.01516     11.08183        -0.213444     -0.647405      0.098787
O       5.52236      7.57788      2.49959         0.411833      1.005288      0.337833
O       5.53670      7.60056     15.22100         0.579286     -0.292793      0.404299
O       5.69965      7.51677      6.84093         0.169620      0.278262     -0.374172
O       5.66895      7.58060     11.06057        -0.218910     -0.723975      0.034197
O       5.55644     11.40579      2.57694         0.561285     -0.442964      0.162304
O       5.66705     11.35368     15.39486         0.577413      0.159015      0.280196
O       5.61502     11.45106      6.86164         0.097666     -0.919556     -0.390460
O       5.82063     11.43770     10.79430         0.234190     -0.944310      0.585423
O       9.40249      3.81826      2.52532         0.906013     -0.539348     -0.019091
O       9.40561      3.76572     15.18377        -0.104037      0.769606      0.483507
O       9.52228     15.14841      2.34403         0.131135      0.947355      0.363764
O       9.57219     15.10713     15.27263        -0.035001      0.669675      0.421754
O       9.53250      3.76780      6.66026         0.227203      0.002517      0.043663
O       9.44015     15.17982      6.88646         0.462009     -0.014068      0.080773
O       9.57101      3.74993     11.07076        -0.547453      0.722638      0.307127
O       9.50867     15.19349     10.93284         0.424156      0.740471      0.644644
O       9.46636      7.55859      2.39762         0.582169      1.100022      0.032173
O       9.41879      7.61651     15.35727         0.694271     -0.226892      0.240892
O       9.54234      7.58067      6.83252        -0.367935     -0.624248      0.227590
O       9.41542      7.53787     11.05355         0.506457      0.455048     -0.186246
O       9.60190     11.29041      2.78825        -0.822332      0.381238     -0.672669
O       9.48943     11.42235     15.25014        -0.539430     -1.340562      0.143470
O       9.50854     11.40287      6.70726        -0.026782      0.620184      0.465069
O       9.33748     11.37524     11.08885        -0.011918     -0.643019     -0.470455
