  # total energy = -7883.14022176 
CRSYTAL
PRIMVEC
    15.3600000000000000    0.0000000000000000    0.0000000000000000
     0.0000000000000000   15.3600000000000000    0.0000000000000000
     0.0000000000000000    0.0000000000000000    17.440000000000000
PRESSURE
1.65583 1.23991 -4.73864 0.308066 0.458023 -0.029746
PRIMCOORD
320 1
Pb       3.81936      3.74739      4.35743         0.253106      0.276926      0.036365
Pb       3.79563      3.73910     17.40764         0.352662      0.273815     -0.106910
Pb       3.76751     15.29070      4.38597         0.212439     -0.247217     -0.007116
Pb       3.69405     15.29079     17.31221         0.646420      0.009365      0.340858
Pb       0.06514      3.72963      4.30552        -0.250423      0.293241      0.165299
Pb       0.10490      3.85556      0.00279        -0.270526     -0.066007      0.103917
Pb       0.05138     15.31302      4.27727        -0.053007     -0.150629      0.350062
Pb      15.24103     15.26403     17.40711         0.413342      0.029890      0.339577
Pb       3.73033      3.81827      8.75814         0.215530      0.387383     -0.130789
Pb       3.85126      0.03123      8.65423        -0.148863     -0.166852      0.142435
Pb      15.24649      3.96634      8.70449         0.541035     -0.273443      0.222602
Pb      15.19589      0.05386      8.75131         0.538639     -0.091306      0.254792
Pb       3.78270      3.76623     12.95232         0.265800      0.321527      0.474543
Pb       3.71870      0.00680     12.90066         0.351381      0.154538      0.390321
Pb       0.03979      3.74915     13.09734         0.260177     -0.254794     -0.061749
Pb      15.33425     15.28345     13.02907         0.274266      0.334544      0.127103
Pb       3.82694      7.64698      4.32397         0.059290      0.065565      0.285927
Pb       3.75352      7.53537     17.34392         0.061371      0.497008      0.730629
Pb       0.07689      7.80562      4.30148        -0.021602     -0.594496      0.196314
Pb      15.19194      7.60493     17.37689         0.840561      0.272253      0.674330
Pb       3.82654      7.72904      8.71161         0.041495     -0.281638     -0.347651
Pb      15.34495      7.66759      8.69652         0.297141      0.267013     -0.199131
Pb       3.79492      7.56406     12.96114         0.372832      0.087457      0.322236
Pb      15.34178      7.57271     13.12322         0.209910      0.627204     -0.045097
Pb       3.80283     11.54608      4.31832        -0.100056     -0.387666      0.359275
Pb       3.83738     11.53519     17.34643        -0.257392     -0.457303      0.095697
Pb      15.27612     11.56125      4.31894         0.598988     -0.034601      0.124861
Pb      15.23982     11.54480     17.30409         0.242736     -0.228568      0.608105
Pb       3.84229     11.51713      8.70607         0.003032      0.129419      0.101548
Pb      15.26108     11.44557      8.73695         0.366931      0.196495      0.298222
Pb       3.83739     11.43168     12.97437         0.097026      0.251379      0.425495
Pb       0.13021     11.52759     13.04643        -0.295562     -0.424563      0.437663
Pb       7.71884      3.67308      4.32513        -0.101728      0.638121      0.672325
Pb       7.55867      3.80661      0.02326        -0.008577     -0.205243     -0.382697
Pb       7.75172     15.28099      4.38170        -0.479566     -0.133793      0.468068
Pb       7.59032     15.34521     17.39833        -0.065003      0.079857      0.170294
Pb       7.65002      3.87026      8.63081         0.023881     -0.148062      0.535887
Pb       7.64277     15.33861      8.66462        -0.126493     -0.045223      0.059864
Pb       7.80626      3.94710     13.05597        -0.449524      0.318136      0.493994
Pb       7.56226      0.16950     12.96140         0.378566     -1.021942      0.778672
Pb       7.72783      7.57179      4.32059        -0.139636     -0.012320      0.198814
Pb       7.52877      7.72854     17.40788         0.178732     -0.029688      0.084764
Pb       7.68343      7.69270      8.68061        -0.006418      0.065181      0.136376
Pb       7.62294      7.68796     12.97234         0.412728     -0.040352      0.396438
Pb       7.70001     11.46078      4.36302        -0.395866     -0.254212      0.025397
Pb       7.60561     11.51569     17.40853         0.251789     -0.151378     -0.176906
Pb       7.63185     11.56260      8.65356         0.209366      0.026546      0.006751
Pb       7.68968     11.49694     12.94867         0.036951      0.154822      0.761970
Pb      11.42525      3.74677      4.24621         0.469896      1.253498      0.893515
Pb      11.63186      3.80392      0.04750        -0.258134      0.342340      0.158681
Pb      11.52512     15.21794      4.33458         0.163258      0.283105      0.548236
Pb      11.35460     15.26317      0.06293         0.299246     -0.034375      0.028255
Pb      11.37791      3.94498      8.66024         0.185850     -0.280941      0.473919
Pb      11.46921      0.01048      8.66865        -0.084800      0.002480      0.491585
Pb      11.59629      3.72591     13.17123        -0.244238      0.261473      0.017417
Pb      11.55885     15.34403     12.97952        -0.383693     -0.154057      0.810273
Pb      11.46142      7.66060      4.22539         0.198039     -0.239919      0.410549
Pb      11.50671      7.64453      0.02184        -0.111040      0.184124     -0.106467
Pb      11.52301      7.69987      8.66785         0.101616      0.150751      0.282807
Pb      11.44643      7.60982     13.10628        -0.350359      0.123967      0.351187
Pb      11.55155     11.46314      4.25770         0.112243     -0.195386      0.233568
Pb      11.35726     11.45550     17.39910         0.306205     -0.102618     -0.064859
Pb      11.58688     11.51596      8.63125        -0.337755     -0.090878      0.536522
Pb      11.55665     11.47340     13.02151        -0.260788     -0.012256      0.619516
Ti       1.94267      1.87214      2.33432         0.177470      0.462423     -1.850823
Ti       1.91313      1.87618     15.45402         0.185142      0.443349     -2.258356
Ti       1.88664     13.35218      2.29053        -0.054951     -0.039949     -1.361784
Ti       1.85298     13.40930     15.36162         0.539628     -0.043803      0.632906
Ti      13.49598      1.85475      2.39741        -0.298421      1.003896     -1.634252
Ti      13.41923      1.86724     15.56934         0.373811      0.432083     -1.141612
Ti      13.37533     13.41805      2.33405         0.832598     -0.530735     -1.618558
Ti      13.37319     13.45075     15.38695        -0.125765     -0.725906     -1.046383
Ti       1.88909      1.90508      6.68594         0.425728     -0.386902     -0.416036
Ti       1.86924     13.39884      6.76537         1.091326      0.155856     -0.785727
Ti      13.49065      2.02062      6.70956        -0.739082     -0.270193     -1.523749
Ti      13.49504     13.48657      6.75275        -0.776202     -0.707293     -1.900166
Ti       1.89801      1.93913     10.98542         0.213626     -0.006608     -0.685528
Ti       1.93776     13.44531     11.00422         0.107492     -0.240637     -1.974845
Ti      13.38661      1.86617     11.08049         0.929826      0.671937     -0.513969
Ti      13.47845     13.37347     11.15263        -0.123057      0.104347     -1.497760
Ti       1.90175      5.74070      2.38448         0.402158      0.227225     -1.976803
Ti       1.86175      5.73561     15.38479         0.518685      0.457936     -1.016067
Ti      13.47088      5.68866      2.37865        -0.245039      0.592119     -0.976450
Ti      13.42684      5.78283     15.37620        -0.817332     -0.350786     -0.745937
Ti       1.88502      5.70651      6.64967         1.142061      0.791207     -0.601164
Ti      13.48263      5.79376      6.64738        -1.340417      0.666296     -1.736847
Ti       1.88487      5.78084     11.04782         1.279450     -0.505190     -1.479521
Ti      13.46129      5.73258     11.15316        -0.363008     -0.077225     -0.396610
Ti       1.95483      9.56586      2.25412         0.360630      0.655297     -0.963459
Ti       1.85743      9.59309     15.48063         0.506905     -0.249142     -1.403853
Ti      13.55950      9.52960      2.34151        -1.543014      0.651781     -1.879151
Ti      13.39609      9.56215     15.38914         0.297061      0.558912     -0.955735
Ti       1.92228      9.64192      6.78709         0.981091     -0.249995     -1.434363
Ti      13.52098      9.59802      6.66600        -1.441050     -0.114019     -1.163367
Ti       1.95917      9.60842     11.07791        -0.466111      0.272175     -2.009302
Ti      13.47963      9.55406     11.17392         0.307220      0.090739     -1.075030
Ti       5.81592      1.81305      2.47965        -0.443926     -0.114340     -1.683263
Ti       5.76468      1.86604     15.34470         0.267035      0.267701      0.547521
Ti       5.77750     13.36678      2.38370        -0.590445      0.467983     -0.170097
Ti       5.71999     13.39849     15.32390         0.290980      0.633350     -2.093103
Ti       5.75567      2.00090      6.67809        -0.675238     -0.518387     -0.231301
Ti       5.72533     13.49988      6.68825        -0.459152     -0.464121     -1.442563
Ti       5.82915      1.96792     10.99984        -1.822829      0.273433     -1.034224
Ti       5.78880     13.42498     11.06432        -0.614117      0.245479     -1.224896
Ti       5.73176      5.66669      2.37708        -0.214634      0.382635     -1.676831
Ti       5.70436      5.74575     15.44788         0.559559     -0.607513     -1.971280
Ti       5.76290      5.73649      6.72976        -0.641593      1.144765     -0.961505
Ti       5.85516      5.74689     11.02304        -1.955898     -0.376964     -0.863927
Ti       5.76321      9.47845      2.40568        -0.277795      1.043859     -1.509171
Ti       5.69916      9.61495     15.33399         0.043522     -0.169960     -1.319480
Ti       5.82876      9.61171      6.70720        -0.673267     -0.523266     -1.378323
Ti       5.80089      9.60471     11.03800         0.058020     -0.084994     -0.443673
Ti       9.67709      1.87337      2.43190        -1.111133     -0.217598     -0.985153
Ti       9.65917      1.93944     15.51520        -1.278472      0.465839     -1.395909
Ti       9.55162     13.43668      2.38455         0.342145     -0.129333     -1.202158
Ti       9.52954     13.53740     15.34319         0.456212     -1.566817     -0.759869
Ti       9.63990      1.86578      6.70261        -0.681586      0.931103     -0.848971
Ti       9.65322     13.43584      6.69618        -1.232824     -0.318451     -0.576103
Ti       9.60692      1.95366     11.12832         0.062609     -0.041094     -1.802601
Ti       9.61215     13.47519     11.11109         0.128511      0.087248     -1.240842
Ti       9.54425      5.71118      2.25306         0.677196      0.551604      0.199970
Ti       9.58156      5.78645     15.58460        -0.417241     -0.065222     -1.383512
Ti       9.63305      5.76993      6.69191        -0.329120     -0.162265     -1.797536
Ti       9.69919      5.76671     11.02367        -0.979878      0.363671     -0.984308
Ti       9.61317      9.62254      2.35648        -0.070767     -0.501856     -1.650354
Ti       9.52335      9.58735     15.41938         0.596971      0.306521     -0.700749
Ti       9.69438      9.58510      6.67688        -0.295034      0.487513     -0.816026
Ti       9.69676      9.61227     11.04075        -0.860991     -0.714829     -0.894780
O       1.81980      2.00878      0.43991         0.763838     -0.224710      1.349826
O       2.05874      1.91556     13.51867        -0.793772     -0.117335      1.817193
O       1.82791     13.42975      0.44783         0.390392      0.069339      1.462807
O       1.80085     13.44999     13.62041         0.198934      0.193307     -0.959487
O      13.38899      1.95015      0.56096         0.304215     -0.208786      0.736691
O      13.46767      1.89069     13.76793        -0.465487      0.034878      0.257318
O      13.49739     13.53074      0.49398        -0.307508     -0.369047      1.139986
O      13.48770     13.48187     13.55722        -0.109950      0.161579      0.909532
O       1.87471      1.88170      4.84333        -0.199362      0.205079      0.584900
O       1.87744     13.36021      4.93123         0.140303      0.296027      0.539355
O      13.62520      1.99764      4.91263        -0.546580     -0.425670      0.659236
O      13.36162     13.49040      4.88841         0.229545     -0.065483      1.376985
O       1.99849      2.03670      9.16682        -0.544727     -0.349268      0.919289
O       1.94945     13.31121      9.19841        -0.415626      0.401286      0.417892
O      13.44155      1.94448      9.31599         0.037505     -0.135401     -0.334175
O      13.43239     13.40109      9.29335         0.245476     -0.048823      0.699754
O       1.98553      5.80412      0.49552        -0.179344     -0.657101      1.418675
O       1.88187      5.69671     13.53893        -0.063438      0.392829      1.340462
O      13.51791      5.79859      0.56474        -0.310474     -0.335152      0.517330
O      13.39479      5.86065     13.54367         0.217461     -0.398718      0.802679
O       1.96366      5.74327      4.80442        -0.263087      0.053215      1.262594
O      13.32853      5.81981      4.86374         0.431191     -0.054056      0.560294
O       1.96979      5.66656      9.17110        -0.831701      0.355638      1.570035
O      13.45296      5.67401      9.35720         0.377727      0.259657      0.464363
O       2.07466      9.61580      0.47616        -0.382663      0.145112      0.192081
O       1.88697      9.68340     13.62682         0.164753     -0.373601      0.759087
O      13.58103      9.59075      0.48624        -0.396592     -0.167078      1.546733
O      13.42868      9.59351     13.56653        -0.033042     -0.294781      0.761113
O       1.88661      9.81850      4.93935        -0.215910     -0.923209      1.437243
O      13.47652      9.59348      4.85534         0.146328      0.040016      0.229156
O       2.00049      9.63581      9.14009        -0.543005     -0.196748      2.068990
O      13.46667      9.64781      9.32622         0.058800     -0.158281      0.935681
O       5.88002      1.85078      0.64050        -0.277899      0.109409      1.140347
O       5.77808      1.85009     13.60175        -0.006261      0.133080     -0.624474
O       5.79640     13.42351      0.59348        -0.079021     -0.205256      0.305548
O       5.82949     13.38400     13.46873        -0.332117      0.141650      1.535626
O       5.74786      2.04537      4.88295        -0.162849     -0.414593      0.184091
O       5.63690     13.50923      4.83537         0.345213     -0.039570      1.488630
O       5.70761      1.98720      9.20041         0.200446     -0.167337      0.843422
O       5.73239     13.41046      9.21646         0.552925      0.166228      0.823314
O       5.66949      5.73238      0.51260         0.112330     -0.298808      1.001813
O       5.71103      5.67147     13.59580         0.325664      0.426987      1.444623
O       5.72061      5.81053      4.88474         0.177599     -0.026811      1.180080
O       5.79231      5.67133      9.22497         0.136259      0.393580      0.676226
O       5.83237      9.60991      0.53463        -0.129334      0.092100      1.518266
O       5.74841      9.64688     13.46033        -0.103839     -0.021885      1.627623
O       5.85426      9.44532      4.87036        -0.196624      0.336349      1.094347
O       5.80575      9.65765      9.24019         0.070475     -0.066594      0.648705
O       9.53992      1.84283      0.67600         0.351849     -0.104445     -0.205815
O       9.69557      1.95587     13.67103        -0.102095      0.207185      0.813623
O       9.57063     13.57417      0.59298         0.095978     -0.562296      0.431714
O       9.54299     13.51814     13.56416         0.249356     -0.066750      0.168561
O       9.62667      1.97690      4.89098        -0.116923     -0.388555      0.787480
O       9.53157     13.59382      4.86998         0.707772     -0.828303      0.810330
O       9.62279      1.91963      9.31897        -0.107263     -0.103538      0.589849
O       9.53545     13.51525      9.28805         0.265205      0.167807      0.846511
O       9.68953      5.89253      0.49407        -0.582774     -0.413285     -0.120775
O       9.52433      5.81082     13.74505         0.117137     -0.481578      0.463209
O       9.56729      5.70872      4.80354         0.192052      0.165077      2.059781
O       9.67884      5.81022      9.22128        -0.004710     -0.283347      0.228427
O       9.65319      9.68375      0.48564        -0.274598     -0.366115      1.436629
O       9.62084      9.59764     13.61509        -0.127624     -0.100257      0.480609
O       9.73880      9.65814      4.84985        -0.540682      0.070053      0.973730
O       9.76125      9.55573      9.24625        -0.220676     -0.027136      0.276716
O       3.83196      1.94634      2.75155        -0.156329      0.265214     -0.130223
O       3.86548      1.81274     15.74207        -0.185849      0.618058      0.508027
O       3.78721     13.31045      2.67316        -0.126932      0.328564     -0.089360
O       3.76944     13.53954     15.61232         0.997771     -0.230117      0.639287
O       0.04649      1.86887      2.69173        -0.605093     -0.044802      0.235892
O       0.03798      2.00123     15.73582        -1.264560     -0.341728      0.315419
O      15.27486     13.40165      2.73519         1.109448      0.620424      0.024641
O       0.02505     13.53275     15.77385        -1.072329     -0.117512      0.031727
O       3.74697      2.03464      6.98677         0.792258     -0.162502      0.093696
O       3.82804     13.44422      7.10332         0.165457      0.057870     -0.052578
O      15.29162      1.87718      7.06763         0.567861      0.069350      0.577371
O       0.00018     13.34024      6.96859        -0.554375      0.456400      0.568746
O       3.82962      1.90667     11.45081         0.410963     -0.332126     -0.513804
O       3.82410     13.52068     11.26972         0.567884     -0.211969      0.639989
O       0.03042      1.88719     11.39507        -0.453198      0.507312      0.173203
O       0.01003     13.41203     11.44861        -0.019137     -0.158291     -0.008227
O       3.82872      5.66491      2.73308        -0.157923     -0.017361      0.154556
O       3.81708      5.76472     15.73829        -0.409605     -0.094048      0.081200
O       0.04164      5.88977      2.64159        -0.922751     -0.324054      0.508822
O      15.30757      5.76433     15.75077         0.123627     -0.038731     -0.159561
O       3.84613      5.81926      7.12458         0.023097     -0.435802     -0.526731
O      15.32790      5.82887      7.00357         0.654068     -0.129795      0.394760
O       3.77196      5.75754     11.46713         0.412119      0.195476     -0.278091
O       0.07732      5.67431     11.51247        -1.384624      0.323142     -0.209335
O       3.76473      9.65530      2.73837         1.383244     -0.029882      0.142126
O       3.85327      9.62997     15.77314         0.093390     -0.042057     -0.116422
O       0.00355      9.54323      2.68134         0.177291     -0.078344      0.218742
O       0.01833      9.61074     15.79708        -0.339095     -0.229721     -0.013380
O       3.86849      9.52908      7.06521         0.222547      0.355218     -0.064379
O      15.32550      9.62031      7.05950         1.022007     -0.160824      0.486927
O       3.83405      9.59229     11.40484         0.144415      0.056897      0.031980
O       0.03944      9.60954     11.45001         0.182019      0.361959     -0.141026
O       7.68175      1.71787      2.85871         0.425896      0.391705     -0.187427
O       7.68083      1.95232     15.80060         0.252623     -0.170429      0.104156
O       7.71153     13.52075      2.74608        -0.629810     -0.097506      0.158460
O       7.70574     13.35538     15.74442        -0.859524      0.027928      0.197759
O       7.58370      1.91771      7.08580         1.364851     -0.005521     -0.109508
O       7.63065     13.45860      7.05843         0.548255      0.396834      0.094758
O       7.65677      2.02371     11.45151         0.835829     -0.132224     -0.031705
O       7.75699     13.41574     11.46318        -0.647393     -0.123527     -0.423387
O       7.65073      5.77525      2.55864         0.063940      0.285411      0.373701
O       7.61548      5.70198     15.81517         0.354172      0.097695      0.425022
O       7.73445      5.77207      7.18145        -0.208919      0.276241     -0.553431
O       7.63284      5.75983     11.42907         1.535957     -0.354608      0.168566
O       7.64972      9.48754      2.76962         0.383241      0.357375     -0.091578
O       7.65060      9.70331     15.74788        -0.325747     -0.197227      0.084330
O       7.73587      9.54699      7.09720         0.331739      0.632865     -0.119646
O       7.71053      9.64650     11.45474        -0.165997     -0.254472     -0.462275
O      11.52714      1.97467      2.83974         0.813857     -0.564236     -0.610649
O      11.47505      1.91336     15.94786         1.034111     -0.408850     -0.018064
O      11.50856     13.29550      2.64985         0.158895      0.638573      0.397953
O      11.47756     13.40367     15.68809         0.627761      0.233338      0.333085
O      11.47840      1.93913      7.04845         0.813815      0.010793      0.097898
O      11.44396     13.50416      7.15992         1.206886     -0.271085     -0.361641
O      11.50654      1.89951     11.45761         0.882112     -0.147623      0.298549
O      11.58434     13.49828     11.52849        -0.484708     -0.167499     -0.316570
O      11.45548      5.64718      2.55390         0.554238     -0.022804      0.585920
O      11.48147      5.89661     15.78313         0.839878     -0.264150      0.208039
O      11.53841      5.77255      7.18103        -0.368279     -0.075464     -0.522503
O      11.50275      5.82911     11.38670         1.684742      0.016740      0.410304
O      11.49070      9.77051      2.66135         0.591975     -0.982187      0.027574
O      11.58368      9.47917     15.76163        -0.609655      0.617835      0.273353
O      11.61237      9.58670      6.98918        -1.132397      0.305943      0.499063
O      11.49306      9.43051     11.48056         1.236575      0.462806      0.116360
O       1.77043      3.84569      2.65350         0.534348     -0.410907      0.072929
O       1.78465      3.89663     15.75925         1.062833     -0.587157      0.169339
O       1.94524      0.01915      2.61944        -0.100935     -1.030710      0.299110
O       1.92385      0.06924     15.79791        -0.500948     -0.824248     -0.094911
O      13.49011      3.79475      2.74454         0.220596      0.314193     -0.021712
O      13.30008      3.90457     15.80239         0.295061     -0.563591     -0.087332
O      13.45803      0.00634      2.69131        -0.469754     -0.506785      0.313647
O      13.40305     15.30861     15.83747         0.064941      0.947494      0.006116
O       1.84166      3.82106      7.04345        -0.294648      0.661623     -0.245926
O       1.98398      0.01324      7.07822        -0.692339     -0.308872     -0.016200
O      13.44966      3.92366      6.99948         0.091345     -1.131155      0.463346
O      13.43420     15.31427      7.15752        -0.056714      0.828293     -0.072137
O       1.97671      3.84424     11.38633        -0.442487     -0.279158     -0.067828
O       1.86420     15.31817     11.24296         0.104291      0.961155      0.559315
O      13.43073      3.82126     11.56015         0.024745     -0.114374     -0.073490
O      13.57299     15.34018     11.39363        -0.657559      0.330990      0.179747
O       1.91025      7.72240      2.66702         0.354225     -0.639868      0.490161
O       1.88646      7.66158     15.92183        -0.022559     -0.123662     -1.016188
O      13.31648      7.62285      2.69068         0.315529      0.929786      0.034406
O      13.49102      7.66885     15.79497        -0.029001     -0.107271     -0.141806
O       1.97791      7.64592      7.11739        -0.894721      0.231567     -0.268675
O      13.41233      7.70790      7.09088         0.470184     -0.223319      0.250365
O       1.91516      7.73767     11.42302        -0.231778     -0.680729     -0.133904
O      13.57607      7.70075     11.51163        -0.219172     -1.064544     -0.306235
O       1.83946     11.48571      2.68267        -0.239209      0.679366     -0.101887
O       1.90770     11.52426     15.74394         0.050617      0.270177      0.227494
O      13.50541     11.50611      2.67365        -0.221989     -0.209271      0.148113
O      13.54273     11.52180     15.71168        -0.579107      0.252776      0.022897
O       1.99197     11.50483      7.18405        -0.425250      0.180479     -0.308011
O      13.41530     11.52469      7.10779         0.056268      0.360060     -0.126511
O       1.98379     11.57946     11.43268        -0.250695     -1.208806      0.182897
O      13.45269     11.49367     11.58953        -0.267409     -0.067600     -0.621908
O       5.88303      3.81990      2.80664        -0.483751     -0.536703     -0.383804
O       5.73012      3.79422     15.81977        -0.180690     -0.012875      0.137205
O       5.64492     15.28427      2.85521         0.189713      0.404324     -0.301817
O       5.84059     15.28471     15.75019        -0.175108      0.316784      0.064354
O       5.76283      3.88723      7.07937         0.090448     -0.064310     -0.109504
O       5.69394      0.09430      7.08110        -0.088006     -0.720366     -0.091981
O       5.74558      3.85418     11.37366        -0.116512     -0.480164      0.221970
O       5.80717     15.33626     11.33602         0.264645      0.803067      0.147646
O       5.62841      7.63557      2.67333         0.265805     -0.095139      0.181805
O       5.81253      7.74274     15.77793        -0.232797     -0.567854     -0.310605
O       5.84868      7.72736      7.23186        -0.345978     -0.735462     -0.427496
O       5.73343      7.66774     11.40275         0.108448      0.287687     -0.069529
O       5.84579     11.49070      2.84463        -0.031785      0.068550     -0.335909
O       5.69308     11.55134     15.72277         0.078784     -0.172444      0.354299
O       5.78770     11.55782      6.90478         0.100215     -0.471697      0.468983
O       5.68122     11.53686     11.35204         0.432568     -0.302272      0.197172
O       9.49088      3.77269      2.75715         0.119358      0.418745     -0.493630
O       9.70059      3.81031     15.98205        -0.420196      0.366883     -0.301368
O       9.78704     15.32545      2.78213        -0.449875     -0.035849      0.037254
O       9.60406     15.32854     15.89735        -0.102949      0.863964     -0.278918
O       9.50007      3.84995      7.12061         0.761089     -0.215769     -0.275001
O       9.62406      0.00706      7.01968        -0.445270      0.118089      0.419086
O       9.79305      3.88179     11.38709        -0.916208     -0.530074      0.696745
O       9.61730      0.05699     11.47351        -0.130768     -0.262129     -0.027617
O       9.58899      7.68604      2.77337         0.307108     -0.200226     -0.561253
O       9.59022      7.71023     15.81048        -0.529151      0.012638      0.400974
O       9.63702      7.70261      6.93584         0.148429     -0.257095      0.341021
O       9.58233      7.59526     11.37807        -0.415640      1.032451      0.577189
O       9.57116     11.50465      2.64900        -0.703451      0.473468      0.533408
O       9.67618     11.47969     15.83752        -0.284809      0.481117     -0.204089
O       9.59918     11.55987      7.16812         0.083416     -0.341691     -0.625853
O       9.74211     11.48071     11.32372        -0.156899      0.769163      0.406328
