  # total energy = -7880.35671923 
CRSYTAL
PRIMVEC
    15.6000000000000000    0.0000000000000000    0.0000000000000000
     0.0000000000000000   15.6000000000000000    0.0000000000000000
     0.0000000000000000    0.0000000000000000    17.640000000000000
PRESSURE
-5.40965 -5.1859 -2.88029 -0.213787 0.524776 -0.024181
PRIMCOORD
320 1
Pb       3.80614      3.90563      4.31995         0.616237      0.378251      0.281426
Pb       3.87471      3.85256     17.54521        -0.220219      0.033356     -0.229352
Pb       3.95414      0.10402      4.34485         0.330387     -0.688748     -0.109531
Pb       3.89315     15.51801     17.54525        -0.022740      0.068306     -0.482226
Pb      15.57847      3.84402      4.38572         0.013014      0.185768     -0.474575
Pb      15.51511      3.92597     17.59152        -0.160148     -0.433444     -0.608087
Pb      15.58105      0.03580      4.44104         0.164886     -0.082065     -0.832234
Pb       0.04152     15.51992     17.52097        -0.467899      0.510258     -0.564029
Pb       3.94300      3.81976      8.74185        -0.096903      0.586783     -0.052010
Pb       3.91384     15.52471      8.73383         0.206483     -0.328238     -0.128195
Pb      15.53800      3.88820      8.76727         0.277777      0.368763      0.042784
Pb       0.02108     15.39819      8.79191         0.517777      0.591552      0.182270
Pb       3.84331      3.89379     13.26317        -0.459966     -0.565795     -0.425292
Pb       3.78180     15.52006     13.13940         0.014009      0.271499      0.047291
Pb      15.49757      3.86134     13.05253         0.250539     -0.019778      0.080007
Pb      15.56987     15.57059     13.12731        -0.126007      0.374567     -0.217290
Pb       3.85981      7.73636      4.47438        -0.192989     -0.135487     -0.753688
Pb       3.81437      7.69752      0.00729        -0.140092      0.327210     -0.593359
Pb      15.52343      7.89404      4.35285         0.462180     -0.289058     -0.140451
Pb      15.56600      7.73055     17.60563         0.191639      0.129157     -0.241594
Pb       3.96121      7.74951      8.68975        -0.325474     -0.443030      0.092316
Pb      15.53232      7.67417      8.79696         0.148531     -0.157374     -0.038759
Pb       3.81608      7.66345     13.17837        -0.067330      0.474749     -0.128921
Pb       0.01563      7.77650     13.21425        -0.817414      0.033184     -0.357974
Pb       3.89345     11.73396      4.38124        -0.445212      0.319472     -0.169897
Pb       3.85563     11.70173      0.04908         0.221130     -0.447793     -0.982770
Pb      15.53682     11.72180      4.41874         0.449828     -0.294274     -0.390463
Pb      15.55365     11.71541     17.60194         0.027923     -0.099598     -0.275495
Pb       3.82898     11.59566      8.75963        -0.085346      0.566281     -0.575937
Pb      15.53710     11.73133      8.76640         1.011131     -0.677521     -0.234471
Pb       3.86474     11.73342     13.16666        -0.236757     -0.358069      0.052109
Pb      15.53189     11.65807     13.08955         0.600078     -0.677666     -0.032786
Pb       7.69482      3.95960      4.34374         0.290246      0.209480     -0.013878
Pb       7.71905      3.86204     17.53440         0.266748      0.126972      0.195895
Pb       7.79543      0.14266      4.34041         0.424261     -0.351893     -0.310951
Pb       7.85918      0.03795     17.51359        -0.202349     -0.121719      0.095507
Pb       7.72689      3.81613      8.85277         0.355034     -0.366732     -0.650092
Pb       7.74043     15.49847      8.86114         0.083129      0.477754     -0.719738
Pb       7.72299      3.92880     13.16294         0.648843     -0.479120      0.242592
Pb       7.74924     15.53021     13.21031        -0.377336     -0.088231     -0.560186
Pb       7.74339      8.00994      4.35570         0.424424     -1.368948      0.469851
Pb       7.74952      7.81617      0.08600         0.232399      0.297497     -0.819740
Pb       7.75844      7.76874      8.75698         0.097900      0.031934     -0.549714
Pb       7.59362      7.77139     13.15950         0.735961      0.145366      0.187761
Pb       7.82476     11.81199      4.37097         0.560764      0.320441     -0.057449
Pb       7.74558     11.63979      0.01536         0.157167     -0.117986     -0.625153
Pb       7.72552     11.68718      8.81775         0.118418      0.199681     -0.843450
Pb       7.86758     11.58144     13.24550        -0.133930      0.340077     -0.658654
Pb      11.59393      3.95081      4.38161         0.238260      0.282472     -0.353682
Pb      11.73658      3.90422     17.58115         0.187771      0.058335     -0.420542
Pb      11.73829      0.15207      4.45234        -0.871906     -0.477234     -0.672307
Pb      11.64009     15.57718     17.57137         0.542839      0.067992     -0.259499
Pb      11.66385      3.84794      8.76918         0.130502     -0.062364      0.174380
Pb      11.75050     15.59921      8.89249        -0.181143      0.313754     -0.730790
Pb      11.55261      3.85913     13.21552         0.260622      0.179051     -0.517103
Pb      11.66924     15.45694     13.11668         0.704879      0.034346     -0.022029
Pb      11.60082      7.82979      4.42036        -0.037054      0.065724     -0.758570
Pb      11.49410      7.83560     17.63060         0.062900     -0.110900     -0.409339
Pb      11.66492      7.75583      8.71248         0.551503      0.374454      0.617400
Pb      11.57586      7.76877     13.19330         0.740772     -0.229134     -0.476389
Pb      11.73193     11.90241      4.32045        -0.573840     -0.722904      0.140993
Pb      11.79742     11.66996     17.56374        -0.327892      0.506753     -0.137736
Pb      11.73120     11.57293      8.70169        -0.307509     -0.327828     -0.031753
Pb      11.70008     11.64266     13.09033        -0.122318     -0.001517     -0.275696
Ti       1.99135      1.94916      2.33159        -0.504731      0.400487      0.457291
Ti       1.91676      1.88576     15.52815        -0.670498      1.008191     -0.286928
Ti       1.94380     13.81954      2.22142         0.342073     -1.289299     -0.138371
Ti       1.95702     13.53661     15.62786         0.255578      0.499262      0.852954
Ti      13.65392      1.87918      2.35530        -0.352605      0.448385     -0.958027
Ti      13.61583      1.93443     15.56375         0.473479     -0.006681      0.725670
Ti      13.64440     13.60335      2.30195        -0.003786      0.458210     -1.483760
Ti      13.66925     13.65878     15.45834        -0.101652      0.293871      0.045006
Ti       2.00860      1.94579      6.81918        -0.328569      0.150541      0.579480
Ti       2.02705     13.67305      6.73881         0.781111     -2.073614      0.786220
Ti      13.74304      1.81015      6.76554        -0.279334      0.960403      1.373682
Ti      13.73523     13.59797      6.79132        -0.055998     -0.247590     -0.702518
Ti       2.00911      1.92095     11.10882        -0.894550     -0.002654      2.303192
Ti       1.88266     13.56121     11.14325         1.076137     -0.028813     -1.108346
Ti      13.67294      1.92894     11.09741         0.277888     -0.117617      0.061542
Ti      13.69093     13.58209     11.07722        -0.526978      0.717647      1.381244
Ti       1.95900      5.86162      2.32243         0.414903      0.512699      1.571835
Ti       1.96018      5.75145     15.52181        -0.240548      0.119791      0.483108
Ti      13.74253      5.79092      2.40451        -0.488446      0.154368     -0.359333
Ti      13.60881      5.90232     15.59113        -0.406141     -0.199226     -0.769115
Ti       1.97169      5.80478      6.67651        -0.213917      0.042392      1.285215
Ti      13.60011      5.73571      6.80949         0.972821      0.459467      2.640147
Ti       1.94700      5.75719     11.22344        -0.881199     -0.168138     -0.261714
Ti      13.60443      5.82558     11.08746         0.546047      0.509804      0.402412
Ti       1.99974      9.79302      2.36491        -0.376384     -0.572336     -0.324110
Ti       1.89169      9.69368     15.64562         0.722835      0.265928     -0.826579
Ti      13.68642      9.75875      2.39886        -0.308702     -0.233026      0.430308
Ti      13.58870      9.70978     15.73213         1.068717     -0.247593     -0.525067
Ti       1.98962      9.62699      6.71947        -0.627482      0.741586      1.276631
Ti      13.71895      9.71729      6.80052        -0.198447     -1.056054     -0.738572
Ti       2.06278      9.58032     11.15719        -1.764376      0.977370      0.976329
Ti      13.65050      9.72561     11.07892         0.172971     -1.326296      0.607276
Ti       5.82094      2.00448      2.36501         0.872701      0.107256      0.164018
Ti       5.75072      1.97839     15.58839         0.210450     -0.502848     -0.979671
Ti       5.86029     13.59783      2.29273         0.209602      1.104189      2.403062
Ti       5.94044     13.62893     15.59835        -0.608953     -0.837668      0.221680
Ti       5.86006      1.93730      6.78272         1.140616     -0.028589      0.076465
Ti       5.93945     13.63484      6.69493        -0.765125      0.083636      0.977073
Ti       5.86324      2.01090     11.23957        -0.052959     -1.048016     -0.078956
Ti       5.79592     13.67183     11.16131         0.232103     -0.382158      0.895266
Ti       5.85102      5.85930      2.28930         0.339917     -0.297259      1.509725
Ti       5.80794      5.88053     15.60266         0.241846     -0.039851      2.503974
Ti       5.86745      5.83187      6.70906        -0.185652     -0.389896      0.741294
Ti       5.88334      5.81512     11.10148        -1.019184     -0.119965     -0.650365
Ti       5.86382      9.79137      2.45324        -0.046315     -0.276508     -0.355818
Ti       5.88729      9.68289     15.61181        -1.117996      0.626600     -0.081757
Ti       5.84837      9.76000      6.73917         0.490263      0.236852      0.535458
Ti       5.87633      9.72527     11.14841        -0.073503      0.588460      2.250384
Ti       9.80114      2.11601      2.33838        -0.329685     -0.927322      0.227952
Ti       9.72021      1.95697     15.55134         0.323034      0.595753      0.127405
Ti       9.75344     13.70942      2.29116        -0.010437     -0.027315      1.609333
Ti       9.76895     13.63481     15.52962         0.667824     -0.960661     -0.338021
Ti       9.83341      1.95705      6.85554        -1.382188     -0.691219      0.336252
Ti       9.92648     13.62979      6.83772        -1.429666      0.056893     -1.333003
Ti       9.80832      1.79091     11.20592        -0.557161      1.257470     -1.484830
Ti       9.70345     13.59496     11.03914        -0.149514     -0.288612      2.246930
Ti       9.80172      5.86907      2.21584        -0.429474      0.258477      2.029774
Ti       9.65551      5.77063     15.58063         0.957808      1.008272     -0.049587
Ti       9.73329      5.83683      6.86439        -0.410215     -0.698375      0.179795
Ti       9.69561      5.80537     11.10229         1.407352     -0.065775      1.005119
Ti       9.73867      9.76025      2.36143         0.880171      0.291140     -0.875316
Ti       9.72705      9.78377     15.49053        -0.587475     -0.677286      0.758357
Ti       9.74183      9.71366      6.74857         0.524323      0.662892     -0.090030
Ti       9.72732      9.65484     11.11332         1.338239      0.173580      0.829705
O       1.97352      1.97968      0.61689         0.065084     -0.057528     -0.113304
O       1.93444      2.06887     13.77554         0.128933     -0.739706      0.070876
O       1.90792     13.69616      0.39839         0.127680      0.286962      1.543395
O       2.12109     13.53380     13.90809        -0.259893      0.031916     -0.717798
O      13.72335      2.02499      0.58878        -0.213224     -0.213174      0.928723
O      13.51177      1.85244     13.84903         0.319598      0.235077     -0.801893
O      13.64872     13.54345      0.48011         0.053584      0.018660      1.416364
O      13.57462     13.65258     13.65747         0.314679     -0.014375      0.925722
O       1.99779      1.97493      5.08538        -0.036872     -0.466240     -0.503410
O       2.10647     13.60402      5.01380        -0.586749      0.468806     -1.100123
O      13.59340      1.79079      5.01837         0.462096     -0.035991     -0.337060
O      13.69490     13.53155      4.99037         0.270398      0.506104      0.582147
O       2.14381      1.89076      9.41052        -0.264417      0.056934     -1.512905
O       1.88720     13.60226      9.33108         0.217352     -0.174400      1.185053
O      13.73125      1.81864      9.31839        -0.355314      0.017874      0.642419
O      13.83320     13.58316      9.31106        -0.466792      0.029336      0.264566
O       2.08551      5.86096      0.58789        -0.275857     -0.111660     -0.420843
O       1.98981      5.76761     13.75426         0.030753      0.311765      0.077123
O      13.81970      5.67508      0.63760        -0.198546      0.266540      0.698383
O      13.61685      6.10578     13.81085         0.118665     -0.596123      1.305831
O       2.07182      5.91114      4.95105        -0.105015     -0.437809     -0.205196
O      13.57089      5.77922      5.14003         0.023758      0.006069     -2.483650
O       1.88035      5.79620      9.49416         0.062963      0.082034     -0.418629
O      13.83434      5.81692      9.31404        -0.490774     -0.239745      0.479622
O       2.01721      9.74588      0.56937        -0.015256      0.052204      0.876408
O       1.82683      9.75106     13.86886         0.260220     -0.034310      0.117472
O      13.67464     10.07222      0.67716         0.083821     -0.671845     -0.630721
O      13.54974      9.55818     14.02887         0.245758      0.354080     -0.884141
O       2.04333      9.57599      4.97986        -0.082503      0.211168      0.228751
O      13.78514      9.62556      4.99287        -0.185322      0.145150      0.688144
O       1.99566      9.49576      9.44767         0.430713      0.249883     -0.657908
O      13.62912      9.83937      9.33873        -0.098705     -0.092095     -0.612396
O       5.91490      2.34252      0.65655        -0.255439     -1.058103     -0.263055
O       5.73540      1.96958     13.81628         0.192130     -0.030512      0.489033
O       5.96154     13.46758      0.60828         0.000266      0.039734     -1.486766
O       5.96426     13.66786     13.83664        -0.307835     -0.087811      0.667034
O       5.90672      1.96114      5.00600        -0.089062     -0.510074      0.097601
O       5.91726     13.82185      4.96368         0.027338     -0.393469     -0.470542
O       5.90217      1.97763      9.43447        -0.321614      0.001564      1.264202
O       5.78886     13.69762      9.42291         0.125592     -0.060562      0.177958
O       5.77061      5.80986      0.56266        -0.038292     -0.154666     -0.425321
O       5.94017      5.88703     13.91514        -0.349570      0.218897     -1.734040
O       5.84518      5.73204      4.97049         0.139257      0.366402      0.142645
O       5.88663      5.73830      9.32729         0.230020      0.141758      0.844198
O       6.03423      9.89496      0.68881        -0.342307     -0.216758      0.840478
O       5.89539      9.58935     13.84108         0.484111      0.002895     -0.619834
O       5.92482      9.70648      4.99675        -0.184059      0.087616     -0.470496
O       5.85110      9.76544      9.48032        -0.056100     -0.101346     -1.961467
O       9.77953      2.01077      0.59095        -0.077571     -0.120269     -0.148801
O       9.67975      2.11304     13.78931         0.288246     -0.868658      0.711446
O       9.80596     13.68803      0.56568        -0.055115      0.274192     -0.674058
O       9.83806     13.60511     13.75508        -0.453837      0.225762      0.769597
O       9.76636      1.88631      5.11514         0.330241      0.424421     -0.545128
O       9.86073     13.48041      5.02134         0.205219      0.322075      1.339388
O       9.67952      1.82164      9.37268         0.692441     -0.130766      1.480660
O       9.67539     13.63418      9.31679         0.295680     -0.109903     -0.649275
O       9.97820      5.81043      0.49618        -0.454127      0.261790     -0.813033
O       9.75269      5.79342     13.81328        -0.289890     -0.098493      0.306103
O       9.69635      5.73757      5.13369         0.560021      0.363592      0.102648
O       9.77795      5.78423      9.36544        -0.461828      0.082614     -0.020002
O       9.71572      9.63331      0.53520         0.027415      0.391003      1.445684
O       9.57581      9.71264     13.70867         0.457589      0.047947      0.628852
O       9.88170      9.60451      4.96657        -0.554013      0.053214      0.793893
O       9.90504      9.72793      9.39241        -0.461057      0.136501     -0.349046
O       3.93048      1.92633      2.79672        -0.296866      0.111615     -0.261467
O       3.89053      1.85284     16.04014         0.720189      0.732083      0.086982
O       3.89995     13.63191      2.59686        -0.239606      0.131895      0.164515
O       3.91535     13.52801     16.20440         0.716623      0.765453     -0.715765
O      15.53133      1.80060      2.81237         0.807145      0.417301      0.328248
O       0.00044      1.97725     15.96400         0.266693     -0.221277      0.073892
O       0.05740     13.73932      2.54000         0.181909     -0.308811      0.766960
O       0.01202     13.84875     15.83551         0.534189     -0.812025      0.151536
O       3.94825      1.93320      7.14952        -0.203164     -0.728552      0.245894
O       3.99136     13.59204      7.05978        -0.802410      0.009625      0.630753
O       0.09763      1.86497      7.09877        -0.523967      0.058942      0.007854
O       0.09281     13.57855      7.28327        -1.286015      0.080270     -0.861813
O       3.80098      2.05989     11.63809         1.237148     -0.326927     -0.096184
O       3.79470     13.58162     11.63340         1.337957      0.330141     -0.215192
O      15.59384      1.92305     11.60528        -0.452089     -0.119609     -0.242992
O       0.02953     13.64015     11.56007        -1.007652     -0.409311      0.139688
O       3.91222      5.94558      2.85153         0.332375     -0.522059     -0.491303
O       3.84655      5.86403     16.05383         0.757744     -0.065849     -0.405918
O       0.09252      5.77321      2.88990        -0.839469     -0.367116     -0.271987
O       0.10413      5.91508     16.07305        -0.477728     -0.329094     -0.346426
O       3.99986      5.86140      7.22138        -0.530383     -0.383913     -0.389136
O      15.59750      5.70670      7.17124         0.760551      0.511392     -0.353045
O       3.87426      5.77703     11.46913         0.815281      0.121550      0.666562
O      15.53090      5.80276     11.60430        -0.145592      0.201103      0.208870
O       3.96273      9.70220      2.89569         0.365373     -0.163723     -0.586360
O       4.01197      9.83606     15.89832        -0.697283     -0.502018      0.729217
O       0.03445      9.79345      2.85880         0.414852     -0.266762     -0.192753
O       0.02726      9.66656     16.01196        -0.628087      0.172118      0.759181
O       3.97155      9.73575      7.32721        -0.911945     -0.162344     -0.807240
O       0.01695      9.59518      7.23256         0.459126      0.287961     -0.494909
O       3.89539      9.78388     11.67084         0.827072     -0.785837     -0.397725
O      15.59523      9.77819     11.48676        -0.073940     -0.111156      0.447604
O       7.90572      2.04488      2.83210        -0.841723     -0.238479     -0.253314
O       7.81759      1.94330     16.05462         0.056015     -0.017970     -0.261973
O       7.82597     13.60807      2.78862         0.073210      0.221764     -0.230243
O       7.84038     13.58151     16.01662        -0.008716      0.562721     -0.218160
O       7.81472      2.01085      7.33385        -0.413481     -0.733372     -0.527637
O       7.76337     13.53357      7.22586         1.074820      0.104962      0.069945
O       7.77200      1.85798     11.63969        -0.323907      0.153339     -0.096931
O       7.79353     13.72647     11.58661         0.132468     -0.111527     -0.386785
O       7.89570      5.59087      2.64621        -0.952090      0.912312     -0.422943
O       7.78451      5.88657     16.09036         0.044772     -0.366222     -0.346978
O       7.81972      5.82817      7.22486        -0.310946      0.270618      0.086736
O       7.75851      5.85225     11.67596         0.500250     -0.588810     -0.799300
O       7.89248      9.68429      2.91976        -0.997293      1.211911     -0.599119
O       7.81437      9.76131     16.06321         0.615621     -0.334556     -0.155989
O       7.79789      9.68545      7.16675         0.006078      0.196223      0.174095
O       7.86155      9.65704     11.47845        -1.152274     -0.045178      0.129404
O      11.67336      1.89302      2.77283         0.755949      0.469851      0.301882
O      11.72960      2.01212     16.04777        -1.089217     -0.505556     -0.106040
O      11.74195     13.51821      2.66744         0.026905      0.028023      0.028330
O      11.75473     13.56681     15.90689        -0.540709      0.561625      0.182490
O      11.73454      1.91171      7.23989         0.547525     -0.362217      0.041393
O      11.81164     13.66399      7.23961         0.008193     -0.275715     -0.018219
O      11.73603      1.85482     11.59241        -0.510259     -0.278407     -0.421529
O      11.73643     13.67176     11.55880        -0.249416     -0.335543     -0.900999
O      11.70003      5.83966      2.87821         0.711301      0.371643     -0.285800
O      11.74201      5.76797     15.92526        -0.381039      0.313754      0.257043
O      11.72599      5.81231      7.34617        -0.671923     -0.329636     -0.622316
O      11.71659      5.75427     11.53369        -0.781520      0.195230     -0.021432
O      11.67792      9.67183      2.76842         0.832682      0.018730     -0.051051
O      11.73932      9.76733     16.05765        -1.071591      0.218429      0.097659
O      11.72753      9.77974      7.15979         0.215196     -0.461611      0.016223
O      11.73203      9.66024     11.61991        -0.442244      0.640048     -0.021246
O       1.96401      3.85841      2.86174        -0.130722     -0.291629     -0.486485
O       2.05336      3.82662     15.83217         0.000716      1.208279      0.699783
O       2.02157      0.04961      2.81425        -0.181803     -0.487708     -0.247566
O       2.07415      0.07925     15.99289        -0.328114     -1.577355      0.172484
O      13.63264      3.87280      2.82663         0.345298     -0.317328      0.331154
O      13.66079      3.90624     16.06710         0.471237      0.423015     -0.368603
O      13.55677     15.49689      2.64883         0.272484      0.543350      0.514410
O      13.72247      0.00859     15.96720        -0.780170     -0.251716      0.197425
O       2.06428      3.92166      7.18684        -0.115326     -0.871673     -0.190555
O       1.94710     15.43397      7.25686         0.368339      2.339147     -0.279282
O      13.72791      3.78180      7.25894        -0.506689     -0.204071     -0.501423
O      13.78394     15.51096      7.21809        -0.379602      0.276278     -0.351583
O       1.80480      3.87599     11.62550         0.523285     -0.325821     -0.235030
O       1.91020     15.52114     11.57764         0.264820      0.570551      0.006308
O      13.59304      3.88268     11.45127         0.311560     -0.800879      0.122248
O      13.68017     15.56832     11.58601         0.032402     -0.415542     -0.456422
O       1.97022      7.73277      2.74744        -0.105891      0.747757     -0.046712
O       2.03102      7.82572     15.94829         0.156936     -0.809893      0.355860
O      13.88003      7.75144      2.65914        -0.741925      0.228817      0.079144
O      13.59152      7.77797     16.22441         0.424653     -0.132451      0.017225
O       2.08029      7.68642      7.11439        -0.200642      0.600791      0.157421
O      13.65328      7.74070      7.30617        -0.147690      0.210404     -0.617951
O       1.84951      7.70330     11.72600         0.988598      0.762916     -0.322695
O      13.60320      7.80556     11.50696         0.327443     -0.139668     -0.262717
O       2.05122     11.62341      2.81120        -0.241076      0.846683     -0.290340
O       1.97013     11.67556     16.03010        -0.433191      0.254745      0.209008
O      13.77199     11.64720      2.85099        -0.289931      0.878991      0.083348
O      13.81238     11.77884     15.95767        -0.326019     -0.616898     -0.004180
O       1.88088     11.62740      7.10565         0.645575     -0.815652      0.269327
O      13.70614     11.65089      7.06393         0.207202      0.295857      0.460826
O       2.01213     11.67544     11.55127        -0.550102     -0.340254      0.113292
O      13.64185     11.66619     11.55100        -0.059719      0.567166     -0.084699
O       5.76199      3.92139      2.83457         0.126824     -0.207282      0.017370
O       5.83407      3.86823     15.91459        -0.057066      0.663007      0.346282
O       5.89108     15.58459      2.65674        -0.013756      0.724513      0.040493
O       5.87767      0.03524     16.03669         0.150649     -0.940983      0.145582
O       5.80344      3.82847      7.15458         0.400942      0.426835      0.123876
O       5.90408     15.50020      7.31076        -0.138324      1.124874     -0.504598
O       5.85543      3.88324     11.73138        -0.019884      0.157178     -0.725338
O       5.71557     15.58629     11.75739         0.366798      0.307714     -0.738952
O       6.08178      7.75929      2.66694        -0.561778      0.370722      0.080224
O       5.88657      7.74270     16.12101        -0.165516      0.352165     -0.065687
O       5.80340      7.81444      7.08941         0.574666     -0.302229      0.295735
O       5.85420      7.67961     11.46346        -0.170487      1.045896      0.331097
O       5.83892     11.72966      2.97547         0.353436     -0.621536     -0.718740
O       5.92357     11.61228     16.02799         0.270309      1.327138     -0.084527
O       5.83028     11.67449      7.25473         0.224673     -0.481073     -0.246484
O       5.99444     11.74990     11.53375        -0.538296     -0.914935      0.081335
O       9.84475      4.01061      2.76142         0.442204     -1.542013      0.021038
O       9.75352      3.89901     15.93073        -0.169674     -0.413216      0.213811
O       9.88050      0.00524      2.87493        -0.642175     -0.359454     -0.560332
O       9.75654     15.57129     16.01912         0.088443      0.300855     -0.338002
O       9.73733      3.85387      7.30370         0.489123      0.597461     -0.165316
O       9.82470     15.54003      7.05376        -0.123649     -0.273987      0.753992
O       9.82336      3.75345     11.59479        -0.731115      0.893111     -0.270814
O       9.70504     15.50180     11.50583         0.477074      0.273904      0.271890
O       9.73388      7.77869      2.69774         0.012180     -0.315129      0.225693
O       9.76342      7.83429     15.98513         0.247108     -0.373242     -0.037479
O       9.77874      7.85577      7.33883        -0.205001     -1.010036     -0.672309
O       9.82472      7.69337     11.49812        -0.525977      0.136321     -0.158863
O       9.70967     11.70307      2.71556         0.191812     -0.314572      0.046491
O       9.78443     11.66052     15.83033        -0.071448      0.363436      0.176315
O       9.81492     11.63204      7.17171        -0.148471      0.197467      0.296311
O       9.77523     11.64840     11.57658        -0.252283      0.446495     -0.303000
