  # total energy = -7881.01173988 
CRSYTAL
PRIMVEC
    15.3600000000000000    0.0000000000000000    0.0000000000000000
     0.0000000000000000   15.3600000000000000    0.0000000000000000
     0.0000000000000000    0.0000000000000000    17.440000000000000
PRESSURE
2.29084 2.28556 3.93577 -0.367993 -0.391723 -0.100792
PRIMCOORD
320 1
Pb       3.85163      3.82695      4.38279        -0.271682      0.006327     -0.585489
Pb       3.90532      3.83268     17.39963        -0.577952     -0.582274      0.234737
Pb       3.80692      0.02407      4.29349        -0.190702     -0.021925      0.163265
Pb       3.66514     15.35764     17.37104         1.059414      0.118180      0.547415
Pb       0.03524      3.71538      4.34895         0.151114      0.807682      0.203478
Pb       0.07928      3.98320     17.39904         0.110118     -0.486069      0.072044
Pb       0.06565      0.00080      4.29695        -0.534188     -0.349354      0.688744
Pb      15.24433     15.30185     17.38091        -0.322114      0.329052      0.723604
Pb       3.75031      3.72929      8.74177         0.388308      0.049862      0.088470
Pb       3.89629      0.01617      8.56217        -0.074949     -0.165678      0.595820
Pb      15.20164      3.92319      8.63401         0.618955     -0.644160      0.651401
Pb      15.20426      0.01016      8.67558         0.633386     -0.139629      0.418550
Pb       3.69959      3.70605     13.09842         0.328424      0.029920     -0.594667
Pb       3.71261     15.32251     12.95718         0.589019     -0.067415      0.206073
Pb       0.03984      3.79163     13.06007        -0.378461      0.202698     -0.376678
Pb       0.00547     15.32150     13.06060        -0.250302     -0.254833     -0.444405
Pb       3.86311      7.64908      4.33037        -0.472657      0.285238     -0.385664
Pb       3.79896      7.57040     17.35622         0.125468      0.037572      0.530587
Pb       0.09301      7.82578      4.36045         0.490415     -0.208656     -0.328881
Pb      15.13476      7.68508     17.37648         0.443188      0.252949      0.248144
Pb       3.86588      7.71075      8.66111         0.077998     -0.142737      0.536418
Pb       0.06679      7.59210      8.62729        -0.042725      0.245506      0.142332
Pb       3.79532      7.56239     12.96418         0.297496      0.238402     -0.147207
Pb       0.01100      7.62609     13.10814        -0.096437      0.130497     -0.301934
Pb       3.80447     11.59928      4.21270        -0.435759     -0.478951      0.295212
Pb       3.98518     11.59693     17.39776        -0.209002      0.014185      0.323365
Pb       0.00684     11.56923      4.37861         0.338076     -0.495555     -0.643235
Pb      15.29021     11.59711     17.26639        -0.262959     -0.753941      1.155291
Pb       3.87674     11.54476      8.60478        -0.258917     -0.309887     -0.052498
Pb      15.25036     11.41505      8.68173         0.274844     -0.204693     -0.253686
Pb       3.89181     11.48358     13.16359         0.043753      0.075771     -0.418799
Pb       0.13704     11.59159     13.06752        -0.571084     -0.589200      0.411575
Pb       7.72910      3.73568      4.38144        -0.136743      0.539190     -0.376830
Pb       7.67028      3.89896     17.37721        -0.237232     -0.316285      0.948822
Pb       7.72556      0.04022      4.35775        -0.417347     -0.182675      0.180518
Pb       7.59963      0.08980     17.30307         0.106299     -0.468965      0.400173
Pb       7.65813      3.79013      8.77612        -0.642223     -0.102322     -0.399674
Pb       7.65375     15.18854      8.69155        -0.532538      0.596815     -0.159874
Pb       7.84244      3.89245     13.11520        -0.230464      0.005847     -0.487284
Pb       7.63595      0.13532     13.04165        -0.087242     -0.873225      0.135167
Pb       7.71220      7.52559      4.30695        -0.160681      0.239664      0.224467
Pb       7.62282      7.78074     17.37320         0.307980     -0.066046      0.631564
Pb       7.66606      7.69923      8.63816        -0.094623     -0.446774      0.201832
Pb       7.54841      7.70371     13.01020         0.289674     -0.052426      0.046894
Pb       7.65304     11.55374      4.30256        -0.190733     -0.400613      0.635438
Pb       7.76239     11.50348      0.00781        -0.251726      0.104506     -0.218578
Pb       7.46746     11.56722      8.52928         0.791447     -0.134866      0.435512
Pb       7.73348     11.44505     13.02991         0.223754      0.342285      0.538460
Pb      11.43764      3.80617      4.29297         0.054125     -0.417175      0.519942
Pb      11.75488      3.88188      0.00940        -0.756927      0.142685      0.174837
Pb      11.48440     15.23541      4.30629         0.381055      0.745068      0.002402
Pb      11.36729     15.28091      0.00678         0.612443      0.060296     -0.122437
Pb      11.35974      3.87921      8.69712         0.593970     -0.270300     -0.298021
Pb      11.53969     15.32623      8.70459        -0.254787      0.012309      0.181727
Pb      11.61406      3.72170     13.09478         0.037530      0.511932     -0.540540
Pb      11.60232      0.00127     12.96327        -0.459040     -0.734687      0.240456
Pb      11.47944      7.66372      4.29611         0.017245     -0.457196      0.865632
Pb      11.57240      7.64541     17.37750        -0.115216     -0.125295     -0.242677
Pb      11.48032      7.69157      8.71665        -0.086919     -0.205186     -0.194549
Pb      11.38602      7.66992     13.06164         0.331843      0.044551     -0.534506
Pb      11.59908     11.43693      4.28137        -0.399619      0.345234      0.498563
Pb      11.42222     11.39704     17.35126         0.328488      0.936670      0.493249
Pb      11.65349     11.48312      8.55441        -1.275234      0.053517      1.560146
Pb      11.54680     11.44903     12.99895        -0.456552      0.295885      0.132606
Ti       1.83344      1.84719      2.31188         1.129189      1.052968      0.401113
Ti       1.80531      1.85773     15.42783         1.287264      0.459451      1.540006
Ti       1.84668     13.43858      2.17703         0.732526     -0.870746      0.513212
Ti       1.86520     13.44891     15.47247         0.540704     -0.571764     -0.527911
Ti      13.45867      1.98311      2.36360        -1.630965     -1.167112      2.033320
Ti      13.41484      1.92961     15.43582         0.253731     -0.738983      0.247825
Ti      13.41275     13.48502      2.27286        -0.076544     -0.067487      0.783575
Ti      13.33914     13.43895     15.34656        -0.511487      0.462166      1.142526
Ti       1.85157      1.90453      6.77167         0.484390     -0.543621     -0.359432
Ti       1.75559     13.44948      6.68893         0.997707     -0.775208      0.420941
Ti      13.38262      1.91463      6.69225        -0.266185     -0.075597     -0.307882
Ti      13.36511     13.44647      6.71841         0.507364     -1.068303     -1.143879
Ti       1.79011      1.80384     11.02081         0.902047      0.936976     -0.478568
Ti       1.93032     13.29159     10.94268        -0.630163      0.365184      0.830208
Ti      13.40936      1.84360     10.99573         0.316264      0.628818      1.082710
Ti      13.37482     13.27077     11.01547         0.163586      0.555980      1.484500
Ti       1.84676      5.73560      2.26875         0.613659      0.587603      1.029139
Ti       1.92868      5.81923     15.34768         0.113993     -1.517314      0.614842
Ti      13.43644      5.81119      2.55506         1.142815     -1.897725      0.089983
Ti      13.47098      5.74342     15.32195        -1.019412      0.437274      0.473335
Ti       1.97851      5.71053      6.84748        -0.710818      0.167398      0.058015
Ti      13.41352      5.66698      6.59071        -0.515749      1.100777      0.205732
Ti       1.85252      5.72208     11.03213         0.644952     -0.335986      0.599048
Ti      13.39112      5.75022     10.98065         0.290245     -0.518007      4.642179
Ti       1.92827      9.59593      2.12799        -0.513116      0.144797      3.805108
Ti       1.93759      9.61450     15.46077        -0.804204     -0.125089      1.041619
Ti      13.38767      9.61033      2.36412         1.647309      0.249698     -0.713439
Ti      13.40781      9.71178     15.31035         0.345871     -1.202248      0.715213
Ti       1.94001      9.58610      6.65260         0.392029     -0.252797     -0.138322
Ti      13.43150      9.38991      6.66483         0.880241      1.544589      0.749501
Ti       1.92339      9.50756     11.01375         0.674585     -0.069174      1.740159
Ti      13.54089      9.48268     11.09483        -0.698036      0.759176      1.947736
Ti       5.74386      1.89584      2.33677        -0.666623      0.108231      0.590382
Ti       5.73978      1.89888     15.39808        -1.556302     -0.231906      2.119949
Ti       5.78597     13.52191      2.41296        -0.674546     -0.583626     -0.052544
Ti       5.79535     13.44636     15.39110        -0.277561      0.234674     -1.559296
Ti       5.74614      1.89184      6.66448        -0.160599      0.298329      0.993937
Ti       5.61752     13.38409      6.56626         1.413154      0.795212      0.455741
Ti       5.69972      1.95014     10.99309        -0.019943     -0.889372     -0.417568
Ti       5.72088     13.41178     11.10919        -0.041380      0.469510     -0.304492
Ti       5.75798      5.71094      2.32204        -0.839582     -0.328181      0.995140
Ti       5.80383      5.72690     15.40000        -0.978165      0.393673      0.712505
Ti       5.72442      5.68359      6.69782         0.362079     -0.547731      0.967875
Ti       5.77086      5.72292     11.01888        -0.666570      0.043612      0.705104
Ti       5.75215      9.54023      2.32995        -0.171939      1.208486      0.193805
Ti       5.68517      9.57511     15.47038         1.543611      0.303559      0.797560
Ti       5.75035      9.47886      6.65720        -0.123580      0.349955     -0.497689
Ti       5.80503      9.63416     11.06405        -1.135493     -0.853564     -0.690902
Ti       9.58509      1.88394      2.21185         0.247361      0.474742     -0.299402
Ti       9.61142      1.99991     15.43943         0.144269     -0.690163      1.998259
Ti       9.59723     13.41400      2.44681        -0.687911     -0.681343     -0.079862
Ti       9.59307     13.48930     15.35739        -0.076698     -0.395647     -0.917611
Ti       9.55746      1.86396      6.72064        -0.264874      0.410697      1.287303
Ti       9.55768     13.49266      6.72300        -0.884756     -1.501743     -0.305761
Ti       9.56767      1.89721     11.00726        -0.543497     -0.727803      0.862980
Ti       9.46079     13.47222     11.03622         1.359475     -0.798348      1.145526
Ti       9.62873      5.74206      2.30639        -0.903660     -0.883071      0.541190
Ti       9.55032      5.73451     15.52035         1.777774      0.930617     -0.558602
Ti       9.53570      5.67490      6.74245        -0.315553      0.880815     -1.917744
Ti       9.61283      5.69378     11.00150        -0.035055      0.890579      0.863418
Ti       9.58869      9.55427      2.33358        -0.909018      0.386147      1.284757
Ti       9.61836      9.58194     15.41884        -0.843792      0.285613     -0.070232
Ti       9.60337      9.64287      6.77053        -0.434444     -0.040672      2.908829
Ti       9.65158      9.62825     10.94807         0.187996     -0.110624      1.318299
O       1.84631      1.96043      0.59461        -0.281639     -0.239047     -0.454919
O       1.86346      1.69220     13.71213         0.065020      0.157722     -1.828750
O       1.86872     13.37210      0.40931        -0.079528      0.017996     -0.003345
O       1.81592     13.47168     13.65986         0.374008     -0.197812      1.136846
O      13.46205      1.99760      0.68146        -0.079969      0.614673     -2.642364
O      13.43720      1.77079     13.69943         0.039895      0.264407     -0.602450
O      13.37808     13.49844      0.55312        -0.207571     -0.427996     -0.385169
O      13.22083     13.37169     13.62600         0.579783      0.574653     -0.656761
O       1.92541      1.85665      4.99052        -0.435034     -0.133905     -0.142686
O       1.86630     13.52084      4.93640        -0.455821     -0.061965      0.136946
O      13.27912      1.78973      4.95974         0.418930      0.111876      0.152379
O      13.38327     13.43926      4.93622         0.057557     -0.078206      0.404594
O       1.85487      1.91430      9.26699        -0.206973     -0.302595      0.262960
O       1.78545     13.24225      9.20595         0.479599      0.035815      0.344020
O      13.38649      1.82270      9.27122         0.127098      0.133750     -1.199943
O      13.38640     13.28234      9.28185         0.303876      0.224059     -1.224218
O       1.88933      5.77736      0.51570        -0.111469     -0.350329     -0.551906
O       1.83449      5.71139     13.59764         0.378729      0.263453      0.209396
O      13.54575      5.68407      0.80403        -0.553870     -0.080822     -1.337525
O      13.43189      5.72773     13.60569        -0.201139     -0.045905     -0.850383
O       1.81634      5.78508      5.15634         0.540754     -0.256625     -1.491437
O      13.36231      5.78448      4.86648         0.597135     -0.267091     -0.546989
O       1.69979      5.71978      9.29330         0.383539     -0.069153     -0.761951
O      13.40497      5.61478      9.34273        -0.040753      0.290635     -3.534498
O       1.80754      9.63355      0.45808         0.118432     -0.157883     -2.429348
O       1.93759      9.67988     13.74524         0.055516     -0.321241     -0.393864
O      13.47167      9.61590      0.59087        -0.470278     -0.339120      0.454909
O      13.39228      9.58351     13.59508        -0.025296     -0.166409     -0.525823
O       1.95252      9.55828      4.89285        -0.263667     -0.263533      0.403488
O      13.51300      9.58681      4.94125        -0.487286     -0.222345     -0.888678
O       1.98986      9.39918      9.30624        -0.308052      0.456106     -1.040703
O      13.51422      9.56034      9.40217        -0.149598     -0.331268     -2.079541
O       5.65332      1.93188      0.62389         0.487210     -0.225374     -1.366849
O       5.51202      2.04736     13.73379         0.354491     -0.308673     -2.207137
O       5.83238     13.47603      0.66150         0.055877     -0.284436     -0.415183
O       5.61238     13.42815     13.59309         0.299341      0.084804      0.633346
O       5.61576      1.89600      4.90743         0.252380      0.245904     -0.044068
O       5.61011     13.51212      4.84749         0.084488     -0.195965     -0.890857
O       5.80054      1.82954      9.21517        -0.455998      0.167686      0.627635
O       5.62256     13.32452      9.30796         0.425762      0.087326      0.327151
O       5.64475      5.53310      0.60872         0.368220      0.743412     -0.841692
O       5.71666      5.89822     13.68752         0.354411     -0.642202     -0.726436
O       5.68895      5.62742      4.95211         0.105992      0.035397     -0.856359
O       5.90539      5.83455      9.31781        -0.267560     -0.292133     -0.676399
O       5.77596      9.74569      0.58690        -0.101374     -0.208188     -0.743861
O       5.93179      9.50635     13.76472        -0.546276     -0.035868     -1.260106
O       5.71577      9.38328      4.92508         0.195994      0.368945     -0.683814
O       5.64659      9.57347      9.28849         0.600647      0.193514      0.292697
O       9.60975      1.94715      0.40477        -0.117793     -0.232855      1.099431
O       9.50666      1.97985     13.73865        -0.105889      0.356490     -1.814087
O       9.57481     13.32372      0.71450         0.022394      0.060968     -1.047960
O       9.62077     13.48322     13.61666         0.039075     -0.071163     -0.086889
O       9.51693      1.80812      5.00973         0.046146      0.140279     -1.104856
O       9.32304     13.43478      4.98660         1.162706      0.317378     -0.608007
O       9.38200      1.89125      9.28992         0.889930     -0.100765     -0.603177
O       9.56237     13.48084      9.31662        -0.312123      0.191606     -1.030523
O       9.44581      5.79320      0.58253         0.665571     -0.070414     -0.333227
O       9.70903      5.58699     13.75332        -0.640656      0.085658     -0.630772
O       9.28982      5.68797      4.92268         0.575859     -0.051290      0.740653
O       9.61736      5.58582      9.27442        -0.062488      0.111814     -1.169386
O       9.60211      9.71429      0.63990         0.278776     -0.017761     -2.060909
O       9.52068      9.64302     13.67677         0.303894     -0.737301     -0.145753
O       9.44730      9.53791      5.13534         0.320298     -0.131856     -3.146066
O       9.67676      9.68852      9.22825        -0.113514     -0.556965     -0.810414
O       3.74158      1.75066      2.67942        -0.584740      0.678230      0.163457
O       3.79662      1.79034     15.92153        -0.236528      0.258011     -0.422521
O       3.71717     13.54164      2.65666         0.384946     -0.455401      0.045868
O       3.89575     13.42687     15.83487        -1.849709      0.275882     -0.036949
O      15.25260      1.80519      2.85250         1.104647      0.634974     -0.088142
O      15.34251      1.94873     15.83982        -1.165243     -0.296377      0.108101
O      15.35446     13.38603      2.56477        -1.476325     -0.098526      0.559537
O      15.22519     13.43250     15.78263         0.860456      0.172764     -0.366525
O       3.79072      1.88660      7.15113         0.049389     -0.217410     -0.028511
O       3.85185     13.34454      7.04057        -1.879450      0.509037      0.281444
O      15.33571      1.89316      7.09492        -1.413384     -0.126914      0.018408
O      15.27455     13.25111      7.13923        -0.278611      0.511172     -0.306603
O       3.76297      1.84818     11.43512        -0.621058      0.100419      0.149898
O       3.85114     13.23363     11.45742        -1.385286      0.396360     -0.130129
O      15.31201      1.92920     11.55549         0.102718     -0.775464     -0.288609
O      15.32068     13.29480     11.54696         0.214278      0.581690     -0.746874
O       3.81543      5.72233      2.78760        -0.371085      0.181140     -0.093864
O       3.87406      5.69708     15.81541        -0.719332      0.324418     -0.232682
O       0.03045      5.64615      2.78595        -0.606470      0.499683      0.341318
O      15.34080      5.77205     15.79422         0.439209     -0.223032     -0.135151
O       3.87667      5.66433      7.28041        -0.536319     -0.135880     -0.334917
O      15.34567      5.68027      7.15472        -0.730810      0.283541     -0.236796
O       3.78140      5.82365     11.28015         0.256079     -0.359778      0.525959
O       0.02208      5.83299     11.53506        -1.286681     -0.275894     -0.201463
O       3.76878      9.47530      2.64378         0.554236      0.630949     -0.123083
O       3.84249      9.61462     15.85602        -0.762597     -0.129089     -0.014117
O      15.31863      9.77195      2.75838        -0.419832     -1.041735     -0.055181
O      15.23731      9.57887     15.82121         0.898204     -0.137633     -0.231969
O       3.89223      9.47900      7.04604        -0.884634      0.331686      0.354981
O       0.06077      9.46648      7.06096        -0.995643     -0.057279      0.122693
O       3.86465      9.46068     11.44950         0.001991      0.819046      0.372155
O       0.05631      9.47073     11.56525        -0.366148      0.334980     -0.378120
O       7.68121      1.82290      2.70425         0.245957      0.270232     -0.132805
O       7.57558      1.90900     15.77980         1.473141      0.371509      0.031660
O       7.62956     13.47606      2.88819         0.076325     -0.202361     -0.377199
O       7.69169     13.45375     15.65334         0.010505     -0.111810      0.782629
O       7.63661      1.84870      7.09290         0.372019      0.188530     -0.231163
O       7.60363     13.44461      6.96967        -0.276557      0.024287      0.909885
O       7.60859      1.76981     11.43638         0.056233      1.284459      0.197158
O       7.61574     13.44470     11.48917        -0.105557     -0.097456     -0.172011
O       7.62162      5.69124      2.74871         0.164789      0.217616     -0.164971
O       7.69401      5.87262     15.83432        -1.125964     -0.498722     -0.078939
O       7.58982      5.49316      7.16516         0.622129      1.188947     -0.191102
O       7.69304      5.67318     11.43357         0.044622     -0.214720      0.499569
O       7.71934      9.57935      2.57304        -0.695783     -0.510788      0.696287
O       7.65807      9.57687     15.88704         0.427864      0.329793      0.134757
O       7.62171      9.52783      7.20244         0.589452      0.319826     -0.153460
O       7.68146      9.56082     11.49837         0.432150     -0.303191     -0.455426
O      11.42900      1.97588      2.75214        -0.515500     -0.375339     -0.263071
O      11.51637      1.96408     15.65376        -0.598635      0.348919      0.654528
O      11.45234     13.34418      2.86694         0.441585      0.017061     -0.217222
O      11.49277     13.44600     15.85683        -0.261855      0.191026      0.231301
O      11.49815      1.83774      7.08231        -0.182482      0.106124      0.528309
O      11.49695     13.39899      7.06008         0.012183      0.076072      0.039849
O      11.51295      1.81010     11.39806        -0.906865      0.570990     -0.027576
O      11.54723     13.45958     11.40135        -0.953043     -0.096180      0.074130
O      11.54138      5.67869      2.89545        -1.015807      0.246868     -0.742020
O      11.47952      5.79526     15.83617         0.717703     -0.222041      0.530056
O      11.46355      5.71083      6.87295         0.176822     -0.016736      0.937441
O      11.49641      5.59723     11.34931         0.008571      0.170772      0.486839
O      11.45629      9.46857      2.79484         0.866607      0.620153      0.050643
O      11.54932      9.62848     15.87159        -0.600411     -0.647340     -0.279770
O      11.58861      9.50017      7.25172        -1.277912     -0.167065     -0.938394
O      11.53058      9.55755     11.62243        -0.939998     -0.203017     -0.891455
O       1.79362      3.88001      2.79572         0.580149     -1.459064     -0.208568
O       1.88706      3.69081     15.74468         0.190105      2.024959     -0.043374
O       1.66595     15.32779      2.67415         0.852491     -0.135389     -0.336223
O       1.76488     15.29158     15.94294         0.393683     -0.193599     -0.569598
O      13.40261      3.75294      2.95854         0.131494      0.915606     -0.254567
O      13.33183      3.87380     15.78076         0.707824     -0.263481      0.092127
O      13.20207      0.00786      2.56376         0.463234     -0.754625      0.765396
O      13.38511      0.06245     16.04203        -0.322870     -0.339110     -1.095038
O       1.85739      3.71992      7.16229         0.339129      1.133828      0.141657
O       1.74373     15.28310      7.21008         0.536646     -0.062307     -0.320409
O      13.33070      3.86903      7.12319         0.257514     -1.397027     -0.245229
O      13.41431     15.28960      7.12883         0.085398      0.296096      0.001024
O       1.83875      3.78763     11.50795         0.220851      0.034918     -0.040743
O       1.81544     15.28658     11.34738         0.174317     -0.936922      0.144522
O      13.50161      3.77756     11.45456        -0.361335      0.270237      0.180539
O      13.38418     15.33751     11.36328         0.782964     -0.598804      0.240294
O       1.79699      7.72052      2.67683        -0.037549     -0.723370     -0.131742
O       1.97977      7.60303     15.82794        -0.390855      1.060478     -0.406599
O      13.44993      7.60192      2.79217        -0.072233      2.163745      0.080914
O      13.39325      7.61662     15.79013        -0.109082      0.575565      0.099842
O       1.96580      7.61023      7.13473        -0.105397      0.288219      0.313717
O      13.38501      7.58030      7.07636         0.214737     -0.497796      0.323520
O       1.91115      7.64408     11.54449        -0.213198      0.078406     -0.132290
O      13.30653      7.66365     11.44850         0.211603     -1.476527      0.165071
O       1.89027     11.48554      2.83796         0.216136      0.852667     -0.976230
O       1.80363     11.48127     15.90046         0.624497      0.805138     -0.799498
O      13.30704     11.48715      2.73180         0.008194      0.298691      0.024774
O      13.33009     11.55350     15.73543         0.255545      0.082111      0.021630
O       1.87282     11.43845      6.98041         0.301618      0.595273      0.365176
O      13.37451     11.32932      7.18657         1.003514      0.964235     -0.949729
O       1.86622     11.44795     11.58059         0.569330     -0.013785     -0.891862
O      13.35225     11.38474     11.43871         0.504997      1.120935      0.002016
O       5.64720      3.74394      2.72931         0.239431      0.822896      0.456714
O       5.69119      3.82857     15.91460         0.725379      0.235256     -0.807285
O       5.64803      0.02877      2.79455         0.756934     -0.691899     -0.023385
O       5.78093     15.33556     15.84129        -0.165937      0.136965     -0.096248
O       5.71218      3.78131      7.24958        -0.285779     -0.558403     -0.513050
O       5.72188     15.35493      7.02634        -0.300501     -0.607692      0.212368
O       5.53054      3.77254     11.43329         0.849915      0.844583     -0.014104
O       5.63092     15.35825     11.41359         0.139957     -0.647799      0.209700
O       5.70421      7.71779      2.66958         0.352203     -1.745761      0.031943
O       5.76274      7.67216     15.94070        -0.457470     -0.386461     -0.203184
O       5.73517      7.58989      6.97552         0.468046     -0.347541      0.711928
O       5.74002      7.61406     11.50190         0.562615      0.566039      0.061168
O       5.71480     11.49303      2.86013        -0.049734      0.282840     -0.542756
O       5.65829     11.55806     15.71701         0.583421     -0.715963      0.489614
O       5.71092     11.46337      6.96498         0.113695      0.156652      0.142405
O       5.84763     11.46967     11.56683        -0.612231     -0.151307     -0.274783
O       9.53015      3.83405      2.70184        -0.028640     -0.669745      0.000094
O       9.52232      3.93549     15.95884         0.130601     -1.553163     -0.469268
O       9.56815     15.28144      2.70268         0.273368      1.283878      0.083141
O       9.62988      0.01934     15.73625        -0.311846      0.514728      0.499762
O       9.60540      3.82398      7.08973        -0.030114     -1.512849      0.358409
O       9.61178     15.32094      7.18494        -0.132815      0.416900      0.042883
O       9.56895      3.75580     11.44384        -0.119028     -0.168050      0.335759
O       9.43205     15.31030     11.51655         0.924021      0.986838     -0.225324
O       9.68440      7.58055      2.77256        -0.734223      0.687975     -0.051682
O       9.64298      7.72044     15.97399        -0.172050      0.015113     -0.442501
O       9.53525      7.55293      7.08723        -0.019920      1.008756      0.700775
O       9.65923      7.64699     11.21355        -0.109534     -0.337228      0.582158
O       9.48347     11.44821      2.87879         0.824758      0.126948     -0.150626
O       9.60544     11.51470     15.73481        -0.016167     -0.148012      0.672855
O       9.50817     11.56724      7.14711         0.434483     -0.712543     -0.326041
O       9.58652     11.48263     11.45472        -0.155035      0.509712     -0.087680
