  # total energy = -7866.80361359 
CRSYTAL
PRIMVEC
    15.010000000000000    0.0000000000000000    0.0000000000000000
     0.0000000000000000   15.010000000000000    0.0000000000000000
     0.0000000000000000    0.0000000000000000    16.400000000000000
PRESSURE
17.2261 17.4269 8.91177 -0.048613 -0.10269 0.02177
PRIMCOORD
320 1
Pb       3.80489      3.76993      4.27473        -0.375459     -0.353561     -0.677142
Pb       3.77995      3.76304      0.13542         0.117868     -0.548867     -0.696062
Pb       3.71659      0.04854      4.11325        -0.044819     -0.160720      0.155379
Pb       3.64606     15.00647      0.02062         0.335412     -0.145463     -0.344062
Pb       0.02087      3.70726      4.05677        -0.158107     -0.231923      0.008614
Pb       0.04944      3.82965     16.39068        -0.164265     -0.389513      0.025017
Pb       0.08775     14.96193      4.04002        -0.608221      0.537122      0.408161
Pb      14.94810      0.02390     16.39484         0.358982     -0.143537     -0.253566
Pb       3.86343      3.75225      8.24593        -0.906539      0.156256     -0.078373
Pb       3.76596     14.83039      8.28725        -0.254344      0.165536     -0.654454
Pb       0.12952      3.76722      8.23540        -0.512166     -0.215742     -0.038101
Pb       0.10207     14.97259      8.28224        -0.600579      0.087093     -0.295019
Pb       3.70126      3.77834     12.28093         0.418487     -0.167824     -0.083248
Pb       3.76803     14.96445     12.40660        -0.214567     -0.013115     -0.440586
Pb       0.06163      3.75805     12.26153        -0.562144     -0.761728     -0.159647
Pb       0.00849      0.00003     12.33152        -0.414413      0.213503     -0.565404
Pb       3.63140      7.43740      4.13486         0.711218      0.778304      0.034600
Pb       3.69712      7.39783      0.11276         0.013565      0.801689     -0.345116
Pb      14.84213      7.47494      4.08678         0.312712     -0.029836     -0.025355
Pb      14.91982      7.55565     16.38237         0.159339     -0.499030     -0.121330
Pb       3.73968      7.45774      8.20622        -0.433050     -0.131497     -0.284439
Pb      14.93901      7.45994      8.21710         0.201589     -0.233340     -0.259544
Pb       3.75486      7.52830     12.31989        -0.370936     -0.386994      0.260482
Pb       0.03914      7.47152     12.33637        -0.381699     -0.191618     -0.270127
Pb       3.61174     11.38815      4.08656         0.068177     -1.103971      0.256436
Pb       3.69356     11.27383     16.34141        -0.181993     -0.192371      0.277650
Pb      14.89968     11.33351      4.07951         0.064352     -0.029239     -0.138748
Pb      14.87931     11.22233     16.37506         0.395281      0.626029      0.180396
Pb       3.69758     11.20828      8.30581        -0.055606      0.019421     -0.928039
Pb      14.92333     11.18957      8.28959         0.167266      0.549465     -1.201341
Pb       3.68455     11.28574     12.36669         0.389384     -0.030446     -0.050585
Pb      14.96139     11.26360     12.34637         0.041968      0.246801     -0.150750
Pb       7.53492      3.60944      4.22226        -0.073641      0.460469     -0.601222
Pb       7.51470      3.75880      0.03393         0.150132     -0.411062     -0.206681
Pb       7.48028      0.04128      4.17721        -0.064373     -0.307303     -0.025599
Pb       7.50139      0.10393      0.07558         0.064954     -0.384707     -0.323927
Pb       7.56172      3.72014      8.22036         0.025623     -0.122747     -0.036721
Pb       7.56385     14.86605      8.29678        -0.289659      0.265876     -0.973116
Pb       7.60842      3.69277     12.27939        -0.435438      0.093674      0.062149
Pb       7.55545     14.98217     12.43883        -0.318518     -0.457572     -0.310522
Pb       7.39158      7.54617      4.16560         0.097857     -0.027620     -0.428655
Pb       7.46764      7.51430      0.08176         0.285929     -0.018904     -0.021207
Pb       7.42903      7.55015      8.25123         0.670707      0.095303     -0.428796
Pb       7.47539      7.40403     12.41613         0.276530      0.415699     -0.149758
Pb       7.35868     11.31511      4.08135         0.674241     -0.348757      0.018872
Pb       7.50684     11.22474      0.04094        -0.182309      0.378147     -0.358172
Pb       7.34950     11.17227      8.33120         0.561789     -0.204972     -0.397191
Pb       7.48029     11.15099     12.44469        -0.090427      0.082992     -0.261358
Pb      11.25391      3.70103      4.09821         0.164758      0.115398      0.336658
Pb      11.22146      3.73109      0.00153        -0.326865     -0.119430     -0.264552
Pb      11.19986      0.06692      4.15697         0.637888     -0.433023     -0.055306
Pb      11.18988      0.04605      0.07207        -0.155516     -0.228026     -0.546062
Pb      11.28886      3.76831      8.17078         0.299087     -0.191793      0.223130
Pb      11.24146     14.91864      8.26857         0.127900      0.188429     -0.713345
Pb      11.33399      3.76045     12.30926        -0.016495     -0.295401     -0.474857
Pb      11.30228      0.05168     12.27171         0.009684     -0.407670      0.014491
Pb      11.18165      7.46459      4.11628        -0.574013     -0.117771     -0.102154
Pb      11.22216      7.53708      0.06756        -0.289441     -0.337190     -0.634631
Pb      11.21524      7.52217      8.19159        -0.128069     -0.431828     -0.335623
Pb      11.36508      7.50457     12.32034        -0.224965     -0.569113      0.097698
Pb      11.19705     11.25355      4.13487        -0.081280      0.597884     -0.145240
Pb      11.25208     11.21703      0.03520        -0.210904      0.256685     -0.631147
Pb      11.11726     11.10191      8.23385        -0.014265      0.582021     -0.476663
Pb      11.31206     11.22003     12.29638        -0.830353      0.331858      0.158796
Ti       1.91935      1.86207      2.05877        -1.062339      0.296486      0.573583
Ti       1.88439      1.88512     14.36100        -0.013974     -0.794286     -0.063820
Ti       1.79485     13.10663      1.97847         0.163612     -0.395330     -0.064358
Ti       1.78814     13.09827     14.35325         0.115169      0.886669      0.525293
Ti      13.09482      1.84601      2.02009         1.404107      0.074678      0.521491
Ti      13.18759      1.82619     14.45040        -0.833075     -0.045432     -1.342794
Ti      13.05352     13.17479      1.97206         1.156939     -0.584142      1.380821
Ti      13.03217     13.10576     14.24441         1.027946      0.443079      1.373814
Ti       1.81423      1.80134      6.20826         1.052699      0.516743      0.525008
Ti       1.86420     13.08426      6.19563        -0.370224      0.466910      0.539772
Ti      13.19214      1.87773      6.15436        -0.261838     -0.425831      1.155850
Ti      13.11344     13.20090      6.11902         0.673554     -0.487566      0.798914
Ti       1.86741      1.81832     10.30993        -0.753506      0.324257      0.329757
Ti       1.76220     13.09944     10.31582         0.339748      0.344182      0.992987
Ti      13.05151      1.77562     10.16876         2.255444      0.802777      1.367347
Ti      13.02927     13.05043     10.18477         0.572610      1.416639      0.747546
Ti       1.83349      5.62959      2.08636        -0.060388     -0.498311      1.170200
Ti       1.88095      5.65560     14.46062         0.246287     -0.361526     -1.219347
Ti      13.03623      5.53559      2.03558         1.039198      0.368567      0.553737
Ti      13.09566      5.53494     14.37966         0.198007      1.706057      0.985424
Ti       1.81510      5.59869      6.10268         1.088257      0.042172      0.621924
Ti      13.13888      5.57047      6.11513        -0.555917     -0.681440      0.494962
Ti       1.87078      5.63040     10.36236         1.143430      0.173845     -1.109458
Ti      13.16050      5.51035     10.32487        -0.905751      0.455914     -0.699659
Ti       1.64397      9.34621      2.05442         1.957338      0.480274      0.556931
Ti       1.82140      9.36883     14.21362         1.151445      0.002912      1.617026
Ti      12.97910      9.32168      2.12196         0.332851      0.899331      0.038044
Ti      13.17207      9.38170     14.42798        -1.176908     -1.218954     -0.931577
Ti       1.78603      9.32824      6.11834         0.556657      1.165424      0.613468
Ti      13.08342      9.38346      6.14616         0.414233      0.605054      0.714746
Ti       1.82291      9.39466     10.21161         0.446812     -0.923661      0.700962
Ti      13.15249      9.36749     10.28001         0.015541     -1.176439      0.552066
Ti       5.61678      1.81770      2.09483        -0.233742      0.163638     -0.062454
Ti       5.60309      1.85618     14.32784         0.816324      1.316835      0.624034
Ti       5.60188     13.11674      2.13920        -0.042747      1.191489     -1.096310
Ti       5.60953     13.16196     14.43619         0.404709     -1.137909      0.277146
Ti       5.57587      1.78901      6.24542         1.462960     -0.897503     -0.005570
Ti       5.63607     13.10855      6.15300        -0.145329     -0.287407      0.482640
Ti       5.61360      1.76625     10.19180        -0.099664      0.870515      2.037771
Ti       5.59241     13.03332     10.33727         0.261209      0.147075      1.886266
Ti       5.65836      5.52150      2.02376         0.566987      0.950721      1.277379
Ti       5.67882      5.64752     14.40401        -0.691104     -1.320480     -0.352915
Ti       5.60606      5.54091      6.17723         0.375670      0.803277      0.690639
Ti       5.68543      5.58292     10.33295        -0.691724     -0.787778     -0.020570
Ti       5.48297      9.38882      2.11981         0.234795     -0.762421      0.199245
Ti       5.55599      9.34446     14.52691         0.356788      0.776563     -1.088432
Ti       5.57821      9.32583      6.24440        -0.617584      0.935376     -0.309973
Ti       5.58579      9.26813     10.40880         0.530880      1.061044     -0.328540
Ti       9.38457      1.82241      2.15484        -0.950064      0.807246     -0.684159
Ti       9.43167      1.84415     14.31835        -0.010365      0.398296      0.225507
Ti       9.36947     13.15690      2.05091        -0.447312     -0.255840      0.901805
Ti       9.35609     13.13022     14.41709         0.645290     -0.074377      0.200446
Ti       9.39022      1.85159      6.24313        -0.284789      0.075548      0.640955
Ti       9.44435     13.15745      6.12258        -0.893298     -0.869853      0.421228
Ti       9.31664      1.77317     10.30681         0.858599      0.950623     -0.928516
Ti       9.30111     13.06009     10.23978         0.661735     -0.429600      0.970951
Ti       9.36372      5.59431      2.09066        -0.677860      0.347796      0.231589
Ti       9.40544      5.55532     14.40560        -0.153131      0.824278     -0.364045
Ti       9.36063      5.60444      6.19552         0.557463      1.581616     -0.829399
Ti       9.36532      5.62518     10.20112         1.617242     -1.337174      0.944015
Ti       9.27601      9.42914      2.08591        -0.063138     -0.273439      1.335474
Ti       9.44036      9.34500     14.40933        -0.853955      0.972015      0.628848
Ti       9.31878      9.43433      6.13973        -0.369712     -1.633670     -0.125376
Ti       9.39876      9.28513     10.43962        -1.587423      0.934851     -1.256984
O       2.01239      1.93184      0.27518        -0.194207     -0.313148     -0.738545
O       1.75525      1.80191     12.50541         0.820259      0.380838      1.470890
O       1.80232     13.07854      0.13828        -0.016842      0.004127      0.651129
O       1.79274     13.09860     12.54260         0.412515     -0.085753     -0.909680
O      13.12109      1.74515      0.21865        -0.083325      0.356270     -0.063255
O      13.12064      1.81005     12.59721        -0.012568      0.300566      0.897041
O      13.33038     13.19097      0.20117        -0.594348     -0.073753      0.033775
O      13.01673     13.06867     12.45898         0.315833     -0.057314      0.099334
O       1.80437      1.78424      4.40087         0.429264      0.299113     -0.835464
O       1.86931     13.13555      4.37894         0.166856     -0.142592     -0.484689
O      13.22915      1.86600      4.38055        -0.250147      0.095046     -1.098256
O      12.98796     13.24181      4.31563         0.410115     -0.614819     -0.363139
O       1.66784      1.93824      8.52188         1.074289     -0.328643     -0.359083
O       1.88764     13.09196      8.54531         0.074009     -0.106236     -1.113233
O      13.29278      1.85460      8.43649        -0.540105     -0.063611     -0.969463
O      13.18840     13.12516      8.41015        -0.782837     -0.164216     -0.202661
O       1.83285      5.68112      0.28425         0.005347     -0.192024     -0.947314
O       1.96658      5.70028     12.57999        -0.555861     -0.525724      0.598081
O      13.14716      5.59998      0.21947        -0.301019     -0.113806      0.747848
O      13.03407      5.68463     12.60869         0.447175     -0.400366     -1.106775
O       2.09150      5.59670      4.28268        -0.778629     -0.337954      0.152970
O      13.05596      5.54432      4.29638         0.087719      0.171406      0.453687
O       1.94771      5.65713      8.49898        -0.243522     -0.110731      0.218498
O      13.07720      5.55819      8.50577         0.321868      0.181916     -0.009369
O       1.85644      9.28632      0.27151        -0.400739      0.070609      0.192216
O       1.88566      9.40348     12.42280        -0.139422     -0.277438      0.598545
O      12.97262      9.29055      0.29832         0.574542      0.333380     -0.210397
O      13.17228      9.27990     12.57768        -0.209864      0.461595      0.005555
O       1.76162      9.44161      4.32227        -0.044164     -0.136671     -0.429284
O      13.14963      9.47026      4.33609        -0.341564     -0.598059     -0.026215
O       1.75601      9.29685      8.42366         0.116006      0.190691     -0.228288
O      13.27956      9.36125      8.46527        -0.894216     -0.123098      0.322211
O       5.55741      1.82520      0.29092         0.084589     -0.166513     -0.838990
O       5.60341      1.87933     12.54692        -0.009943     -0.016607      0.141260
O       5.53980     13.07895      0.28395         0.276385      0.420212      0.003969
O       5.64955     12.94023     12.62221         0.011274      0.471315     -0.632779
O       5.58112      1.74185      4.36187         0.282488      0.567844      0.282656
O       5.50944     13.22663      4.32076         0.024908     -0.609407      0.447525
O       5.69417      1.81677      8.42530         0.043510      0.095842     -0.375910
O       5.61118     13.07829      8.59546        -0.077192      0.132901     -1.764833
O       5.77054      5.70324      0.24454        -0.574557     -0.120595     -0.758358
O       5.84265      5.66738     12.55554        -0.738760     -0.274872      0.171540
O       5.63164      5.38409      4.39147        -0.069943      0.411312     -0.872822
O       5.49293      5.56450      8.50079         0.682841      0.241185     -0.281153
O       5.69397      9.33809      0.29543        -0.811066     -0.032598     -0.247401
O       5.60827      9.32965     12.58362        -0.087213      0.146953      0.316873
O       5.69995      9.36393      4.43606        -0.330479      0.495672     -0.677030
O       5.71635      9.21560      8.52564        -0.246241      0.274065     -0.366305
O       9.32850      1.82954      0.31426         0.320539     -0.061500     -0.251690
O       9.51780      1.78788     12.46801        -0.432734      0.392684      0.003190
O       9.23682     13.22629      0.28241         0.441319     -0.107441     -0.907219
O       9.46777     13.21300     12.63350        -0.317869     -0.243799     -0.855627
O       9.26424      1.81780      4.38849         0.441960      0.204019     -0.707585
O       9.45694     13.14255      4.30871         0.062386      0.152267      0.357128
O       9.24369      1.90638      8.40888         0.305841     -0.418722      0.706822
O       9.39163     13.09592      8.42581         0.077569     -0.115420      0.105840
O       9.41876      5.49152      0.28669         0.094861      0.227781     -0.860706
O       9.46821      5.56887     12.57542        -0.619052      0.111246      0.113613
O       9.43771      5.76670      4.29192        -0.409081     -0.690676      0.814486
O       9.52461      5.50816      8.41911        -0.550359      0.528197     -0.558712
O       9.46844      9.55825      0.32097        -0.195038     -0.384109     -1.199680
O       9.44388      9.42141     12.61395        -0.284176     -0.450888     -0.762747
O       9.25412      9.33187      4.29977         0.291798      0.134786      0.534442
O       9.26985      9.30349      8.55706         0.501469      0.400602      0.351518
O       3.72804      2.10299      2.31632         0.512343      0.239337      0.655641
O       3.78804      1.60920     14.61151        -0.754828      0.194794     -0.248515
O       3.63482     12.75392      2.27489         0.056302      0.757105     -0.221891
O       3.76647     13.32083     14.51050        -0.304897     -0.044043      0.449325
O       0.02647      1.70885      2.22042        -0.504649     -0.448835      0.326433
O      15.00810      1.99588     14.79262         1.161563      0.242138     -0.192098
O      14.97570     13.36781      2.44188        -0.317105     -0.404008     -0.712799
O      14.98666     12.89577     14.47735        -0.666031      0.022526      0.281214
O       3.80492      1.80656      6.49866        -1.839670      0.051487      0.121040
O       3.71965     13.06066      6.55878         0.885463      0.139516     -0.075937
O       0.03907      1.75524      6.49395        -1.057321     -0.140334     -0.180944
O      14.99139     13.19203      6.45568        -0.075816     -0.007094     -0.225665
O       3.75305      2.05964     10.51985         0.190252      0.003096     -0.130354
O       3.72531     12.85419     10.58742        -0.006202      0.272325     -0.026385
O      15.00549      1.70389     10.64166        -0.383551     -0.050444     -0.233832
O      14.92978     13.38343     10.46255         0.133172     -0.675038      0.362941
O       3.80854      5.35614      2.16115        -0.906492      0.022609      0.482528
O       3.75374      5.80115     14.58263         0.011477      0.227145      0.589767
O      14.95424      5.79264      2.44389         0.123495     -0.127313     -0.502036
O      14.95906      5.54966     14.66017         1.173124     -0.702745      0.070499
O       3.71990      5.52898      6.44723         0.515843     -0.279037      0.004024
O       0.02293      5.59519      6.43621        -0.390671      0.813603     -0.121839
O       3.77054      5.37699     10.57129         0.241465      0.021820      0.259828
O       0.04005      5.72532     10.58174        -1.182457      0.282949      0.371796
O       3.66012      9.50808      2.33658        -0.256813      0.543340      0.096771
O       3.68393      9.15904     14.67467        -0.132615     -0.051823     -0.040484
O      14.84989      9.05970      2.36512         0.799137     -0.194893     -0.272014
O       0.02364      9.54398     14.66712         0.234470     -0.235236     -0.094521
O       3.69075      9.38482      6.50636         0.706626      0.370895      0.093161
O      14.96388      9.30585      6.48233        -0.120532     -0.079857     -0.180458
O       3.72360      9.58712     10.42254         0.052622      0.049558      0.301027
O      14.98511      9.13922     10.58837        -0.297520      0.040566     -0.178757
O       7.44247      1.54740      2.25900         1.038337     -0.158732      0.602385
O       7.58477      2.06921     14.49817        -1.005549     -0.071638      0.293264
O       7.50827     13.39246      2.41821        -1.224674     -0.285678     -0.254839
O       7.54739     12.95872     14.60048        -1.442700     -0.137591      0.305301
O       7.52967      1.58442      6.38960        -0.829370      0.861396      0.117039
O       7.53979     13.19435      6.39175        -0.356150     -0.197102     -0.033372
O       7.48355      1.53002     10.59381         0.442004      0.436541     -0.130663
O       7.49592     13.35718     10.49228         0.119323      0.114153      0.437742
O       7.54341      5.81242      2.21225        -0.971782      0.159957      0.718793
O       7.52392      5.42516     14.66648         0.397963      0.506243     -0.025567
O       7.52080      5.62267      6.44525        -1.410085      0.322010      0.156669
O       7.55781      5.85400     10.51835        -0.923150      0.103937     -0.070957
O       7.42621      9.38320      2.32928         0.163023     -0.526919      0.138181
O       7.47520      9.58011     14.74539         0.725498     -0.490997     -0.507107
O       7.50859      9.26776      6.44543        -0.546378     -0.049039      0.408133
O       7.45707      9.20252     10.59048         0.996024     -0.931685      0.511715
O      11.23736      1.99622      2.37822         0.207244      0.445905      0.078543
O      11.31140      1.70244     14.75811        -0.506746      0.054849     -0.157689
O      11.26165     12.94603      2.28843         0.169528     -0.208470     -0.275888
O      11.28811     13.24237     14.78962        -0.213686      0.225498     -0.012117
O      11.25291      2.06259      6.41334        -0.000445     -0.232699     -0.059350
O      11.27389     13.14109      6.43844        -0.373784     -0.824540      0.448497
O      11.26950      2.02905     10.39725        -1.647362      0.223724      0.287066
O      11.20987     12.84885     10.57291         0.352496      0.112029     -0.654998
O      11.21552      5.35575      2.41947         0.709118      0.145215     -0.527809
O      11.24405      5.76211     14.65071         0.443350      0.027275      0.432819
O      11.26371      5.48555      6.44880         0.311574     -0.041039     -0.275992
O      11.29310      5.37284     10.60347        -1.089453      0.082549     -0.254521
O      11.16913      9.59191      2.48885         0.334636     -0.162915     -0.370008
O      11.28525      9.31695     14.73719        -0.097664     -0.091749     -0.187618
O      11.21083      9.39485      6.54942         0.783144     -0.437994     -0.254160
O      11.25939      9.58061     10.56957         0.648756     -0.359308     -0.349599
O       1.62415      3.75300      2.33352         0.371081      0.048426     -0.177785
O       2.08118      3.69877     14.65566        -0.370688      0.859450      0.054169
O       2.08951     14.93608      2.32890         0.004208      0.846284     -0.246740
O       1.79434     14.97334     14.64316        -0.574784      0.960776      0.143091
O      13.31440      3.67213      2.39087        -0.283100      1.033606     -0.415800
O      12.96849      3.75067     14.67875         0.145781     -0.963145      0.028270
O      12.93207      0.04144      2.31764        -0.057934     -1.083070      0.002178
O      13.40333     14.94813     14.50952        -0.301870      0.010759      0.429763
O       1.73080      3.72719      6.43484         0.975741     -0.069001     -0.174138
O       1.88210     14.99941      6.58688         0.564315     -0.680830      0.065942
O      13.31417      3.70316      6.47780        -0.305724      0.965488     -0.072874
O      12.96273      0.02222      6.42015         0.189594      0.054326      0.248463
O       1.68711      3.74868     10.62556         0.357770     -0.226743      0.006837
O       1.93217     14.95509     10.56870         1.088584      0.477619     -0.043607
O      13.28670      3.64477     10.61778         0.227486      0.988203      0.228555
O      12.93054     14.97718     10.52342        -0.344067     -0.863617     -0.156154
O       2.06035      7.46119      2.44406        -0.452121      0.321189     -0.512839
O       1.66945      7.47739     14.62647        -0.049364      0.981576     -0.071050
O      12.85328      7.43521      2.33787        -0.156794     -0.160073      0.149725
O      13.31939      7.53845     14.68824        -0.475249     -0.707692     -0.140282
O       2.03605      7.50064      6.32479        -0.749432     -0.862614      0.107274
O      13.16747      7.41063      6.42863        -0.558338      1.115151     -0.061299
O       1.99759      7.50445     10.57876         0.441884      0.182266     -0.027328
O      12.90183      7.40111     10.59278         0.539866      1.565538     -0.556334
O       1.42850     11.23629      2.22500         0.432260     -0.382621      0.262759
O       2.04931     11.26629     14.51125         0.336849     -1.541148      0.253201
O      13.41374     11.20659      2.19389        -0.628187      0.804231      0.190669
O      13.07277     11.21073     14.64104        -0.445541      1.128764      0.227777
O       1.84226     11.27328      6.44305        -0.254782     -1.038569      0.254943
O      13.10526     11.24827      6.42256         0.162518     -0.356543      0.008959
O       1.63356     11.22411     10.53543        -0.352842     -0.002089     -0.045944
O      13.39398     11.26452     10.55015        -0.256944     -1.456859     -0.312448
O       5.97804      3.68453      2.25319        -0.471100      0.315445      0.293324
O       5.41085      3.80361     14.75985         0.369809     -1.076039     -0.417059
O       5.30848     14.98687      2.38676        -0.231485     -0.386408     -0.349580
O       5.89874     15.00581     14.54066        -0.172857      0.146070      0.186329
O       5.56785      3.64742      6.48066         0.833638      0.490357     -0.064076
O       5.60325     14.87753      6.61812        -0.397311      0.959142     -0.033092
O       5.90151      3.73153     10.63374        -0.242680     -0.620566     -0.650170
O       5.42023     14.99114     10.63748        -0.194608     -0.672308     -0.302863
O       5.44027      7.47337      2.36147         0.239452      0.082379      0.201316
O       5.78658      7.49021     14.62915         0.325172      0.117621      0.377029
O       5.57242      7.46386      6.27563         0.033474     -0.984434      0.716535
O       5.33527      7.42464     10.59642         0.526345      0.409763     -0.201436
O       5.71370     11.32197      2.38847         0.194583     -1.587484      0.320735
O       5.39050     11.20775     14.70685         0.275766      0.475254     -0.079086
O       5.68986     11.24678      6.54884        -0.084817     -0.138683     -0.010419
O       5.97587     11.18552     10.45246        -0.804646      0.245917      0.373099
O       9.13463      3.69934      2.26945        -0.085582     -0.116768      0.958665
O       9.54440      3.72295     14.68039         0.517215     -0.218070      0.000803
O       9.57807     15.00008      2.30457         0.323677      0.155382      0.523912
O       9.26071      0.04766     14.61797        -0.044221     -0.560275      0.448187
O       9.16616      3.78019      6.40271         0.388735     -1.501549     -0.178538
O       9.54242     14.97348      6.46458        -0.003812      0.731520      0.053788
O       9.11623      3.73834     10.40477        -0.004190     -0.830554      0.495798
O       9.67289     14.93426     10.47855        -0.290406      0.550550     -0.178424
O       9.47741      7.53023      2.14010         0.626655      0.161592      0.447156
O       9.38582      7.52400     14.70579        -0.939204     -0.504744      0.170514
O       9.45617      7.49092      6.48116         0.057834     -0.069625      0.096044
O       9.49826      7.44636     10.45165         0.917064      0.563396      0.641099
O       9.18376     11.35817      2.34687        -0.037402     -1.354269      0.346301
O       9.52673     11.29845     14.67459         0.275979     -0.956515      0.204381
O       9.37015     11.20799      6.47223         0.154310      1.188715     -0.059028
O       9.21937     11.22193     10.63375        -0.325565     -0.034630     -0.137414
