  # total energy = -7865.17038166 
CRSYTAL
PRIMVEC
    15.010000000000000    0.0000000000000000    0.0000000000000000
     0.0000000000000000   15.010000000000000    0.0000000000000000
     0.0000000000000000    0.0000000000000000    16.400000000000000
PRESSURE
17.4028 17.3364 9.49566 0.110578 0.247439 -0.047325
PRIMCOORD
320 1
Pb       3.89486      3.75766      4.28286        -1.052884     -0.301482     -0.979105
Pb       3.68417      3.75218      0.00214        -0.026510     -0.375799      0.084870
Pb       3.68085      0.02094      4.15903         0.056060     -0.120100     -0.673486
Pb       3.79116     14.91916      0.00681        -0.697569      0.242927      0.232135
Pb      14.92517      3.74699      4.13527         0.506209     -0.057190     -0.468949
Pb      14.94386      3.61707     16.36647         0.452462      0.082095      0.025630
Pb      14.94218      0.02491      4.24968         0.318541     -0.233710     -0.986804
Pb      14.97800     14.88642      0.12914         0.554494      0.856972     -0.060251
Pb       3.54268      3.76827      8.25326         1.190517      0.315993      0.122545
Pb       3.63041      0.00505      8.11893         0.631352      0.533827      0.712700
Pb      14.86730      3.82853      8.34001        -0.053971     -0.622279     -0.088053
Pb      14.86309     14.95767      8.17060         0.045815      0.359955     -0.268401
Pb       3.60911      3.71897     12.33575         0.445710     -0.038797     -0.164627
Pb       3.66838     14.93088     12.40094        -0.073151      0.325304     -0.620804
Pb      14.94390      3.75756     12.42732        -0.140514     -0.351211     -0.289168
Pb      14.99129     14.95909     12.36153         0.391912      0.259458     -0.123500
Pb       3.85563      7.42887      4.17577        -0.603897      0.155669     -0.547384
Pb       3.76012      7.46320      0.09688        -0.081104      0.204398     -0.651372
Pb       0.03673      7.51100      4.17699         0.742061     -0.388784     -0.320985
Pb      14.94654      7.49379      0.01925         0.745026      0.083872     -0.121941
Pb       3.76366      7.50549      8.11541        -0.177539     -0.341890      0.412916
Pb      15.00429      7.52968      8.35818         0.516891     -0.172340     -0.998489
Pb       3.65999      7.55538     12.29249         0.246143     -0.260581     -0.732082
Pb      14.90096      7.42316     12.34041         0.907886     -0.179328      0.124938
Pb       3.79524     11.15763      4.37742         0.450638      0.252010     -1.345535
Pb       3.76990     11.13712     16.34332         0.102493      0.590374      0.528314
Pb       0.14687     11.16747      4.13397        -0.366186      0.391268     -0.452309
Pb       0.00247     11.33051      0.07829         0.559873     -0.631632      0.239533
Pb       3.81620     11.27989      8.17477         0.122735     -0.350063      0.194084
Pb       0.05807     11.26822      8.20951        -0.397923      0.295237     -0.408840
Pb       3.76405     11.30802     12.27014         0.114862     -0.175374     -0.505867
Pb       0.02799     11.28559     12.34563        -0.063844      0.222011     -0.420914
Pb       7.46590      3.74763      4.04626         0.015918     -0.157543      0.048163
Pb       7.48839      3.70060     16.36376        -0.031047      0.053611     -0.184269
Pb       7.50149     14.89677      4.15655        -0.223322     -0.053552     -0.901278
Pb       7.37257     14.96171      0.00402         0.391471      0.144135      0.269540
Pb       7.37832      3.65433      8.15020         0.300535      1.390934      0.922212
Pb       7.48548      0.22824      8.13504         0.371031     -1.076619      0.941134
Pb       7.32901      3.79388     12.35025         0.447870     -0.218177     -0.247054
Pb       7.45338     14.89189     12.36354         0.330983      0.241678     -0.443777
Pb       7.52128      7.51766      4.08929         0.225888      0.023041     -0.273268
Pb       7.51514      7.51992     16.31517        -0.355734     -0.497850      0.276569
Pb       7.48071      7.44194      8.32687         0.072643      0.133251     -0.221811
Pb       7.46496      7.59013     12.35984        -0.475201     -0.878371     -0.435247
Pb       7.69621     11.20286      4.21998        -0.538396     -0.071834     -1.211456
Pb       7.51964     11.24024     16.36504        -0.389647     -0.019991      0.858650
Pb       7.60603     11.33939      8.09178         0.068937     -0.640183      0.255864
Pb       7.47272     11.25945     12.18458        -0.089761      0.581715     -0.022611
Pb      11.06427      3.81436      4.13791         0.547021     -0.238672     -0.794920
Pb      11.28105      3.69820     16.38820        -0.716829      0.030206      0.544052
Pb      11.28586     14.97459      4.14091        -0.125422      0.036080     -1.000544
Pb      11.21466     14.92887      0.10110        -0.255169      0.251159     -0.239676
Pb      11.17593      3.73260      8.21456        -0.424541     -0.155291      0.311977
Pb      11.15866      0.06023      8.21803         0.151495      0.161928     -0.265379
Pb      11.19440      3.70251     12.37979         0.015802      0.221110     -0.459784
Pb      11.23646      0.10348     12.42073        -0.491556     -1.011605     -0.346499
Pb      11.43899      7.49259      4.20524        -0.824193     -0.420977     -0.692238
Pb      11.27654      7.48363      0.05854        -0.723848     -0.023375      0.006817
Pb      11.24717      7.46948      8.24018        -0.561976     -0.091706     -0.182636
Pb      11.29923      7.44935     12.29755        -0.751826      0.102695      0.112410
Pb      11.44815     11.11551      4.13623        -0.740969      0.270626     -0.124299
Pb      11.37823     11.11253     16.37741        -0.671712      0.092792      0.240616
Pb      11.31285     11.28484      8.29307        -0.469828     -0.428885     -0.826010
Pb      11.24550     11.25902     12.27393        -0.352434      0.541680      0.037608
Ti       1.82300      1.88202      2.14483         0.368318     -0.644870     -0.274442
Ti       1.82961      1.85880     14.42032        -0.512801     -0.637786      0.647305
Ti       1.89295     13.04060      2.23761        -0.295388      0.910143     -0.713491
Ti       1.82337     13.07316     14.50513         0.633215      1.044267      0.291916
Ti      13.08869      1.90094      2.04870        -1.119923     -1.072645      1.124223
Ti      13.05640      1.87139     14.40041         1.295782      0.257548     -0.405348
Ti      13.09248     13.09997      2.05447         0.702484      0.377591      0.805380
Ti      13.10164     13.06361     14.43442        -0.677522      1.090779      0.142668
Ti       1.85117      1.88058      6.19255        -1.361256     -0.254510     -0.515214
Ti       1.88274     13.18791      6.25931        -0.987871     -1.146393     -0.872528
Ti      13.05437      1.84761      6.09124         0.481538      0.046925      0.342053
Ti      13.03129     13.09606      6.16202         1.621854     -0.852512      0.593107
Ti       1.84141      1.82407     10.15358        -0.186353      0.367228      1.147745
Ti       1.86949     13.11731     10.22171         0.059876      1.460842      0.744485
Ti      13.11082      1.81425     10.40721         0.196530      1.114850     -0.125339
Ti      13.11029     13.13397     10.24557        -0.186158     -0.176149      0.624530
Ti       1.84858      5.58575      2.07638         0.543909     -0.011327      1.338214
Ti       1.77594      5.61853     14.43706         0.185269      0.296859      0.099761
Ti      13.16564      5.60590      1.91342        -0.743141      0.350502      0.696830
Ti      13.02691      5.66630     14.37394         0.929859     -1.533469      0.098275
Ti       1.79786      5.54450      6.20395         0.330331      1.372931     -0.132612
Ti      13.10165      5.52922      6.22478        -0.372196      1.091236      0.686132
Ti       1.82865      5.56227     10.36259         0.578881      0.585546     -0.589861
Ti      13.05256      5.65517     10.28659         0.143542     -2.099351      0.735525
Ti       2.05771      9.35252      2.01465        -2.283741     -0.185606      0.725446
Ti       1.85871      9.33838     14.31149         0.492529      0.138597      2.204510
Ti      13.24658      9.34065      2.07182         0.572055      0.211082      1.245882
Ti      13.16461      9.35111     14.36872        -0.969561     -0.352245      0.820739
Ti       1.91887      9.37785      6.23931        -0.727747     -1.193615      0.274962
Ti      13.18423      9.29309      6.22684        -0.117855      0.715091      0.547341
Ti       1.74947      9.43202     10.25172         2.137405     -1.234620      0.676545
Ti      13.04640      9.34868     10.29766        -0.086915      1.184286      0.634589
Ti       5.58416      1.86618      2.10884         0.173686     -0.125228     -0.515992
Ti       5.52587      1.87347     14.30711         0.283921      0.169241      0.433753
Ti       5.58195     13.13676      2.10913         1.031485     -1.485532      0.238424
Ti       5.58396     13.10501     14.32581        -0.226447     -0.007469      0.439361
Ti       5.64107      1.85273      6.25100        -1.044727      1.105928     -0.204098
Ti       5.63727     13.16139      6.24154        -0.119236     -0.611383     -0.406146
Ti       5.57691      1.91924     10.26024        -0.108429     -0.237073      0.725290
Ti       5.60977     13.26384     10.14408         0.276959     -1.549122      1.713105
Ti       5.59797      5.61074      2.01340        -0.300579     -0.216754      0.564778
Ti       5.46363      5.60344     14.36156         2.212230      0.906242      0.131593
Ti       5.59597      5.64840      6.15822         0.129319     -0.490516      2.271830
Ti       5.60885      5.68551     10.26714        -1.438860     -0.192009      0.002492
Ti       5.69381      9.34125      2.10233         0.835330      1.482684      0.561445
Ti       5.61154      9.36310     14.35381         0.187883     -0.265339      0.129500
Ti       5.73813      9.37446      6.15335        -0.442672     -0.053458     -0.815364
Ti       5.55356      9.42412     10.24052        -0.827961     -0.010696      0.517087
Ti       9.30027      1.82794      2.10580         0.588317     -0.383239     -0.589095
Ti       9.26600      1.80241     14.40447         0.062935      0.888866      0.265978
Ti       9.41882     13.04375      2.05611        -0.985487     -0.081447      1.079559
Ti       9.35471     13.03572     14.49656        -0.376541      0.595804     -1.462855
Ti       9.36323      1.79658      6.10457        -0.095415      0.857117      0.033408
Ti       9.42331     13.08719      6.11609        -0.596216     -0.758354      0.093679
Ti       9.32868      1.88516     10.36389        -0.179476     -0.030257     -0.158907
Ti       9.36955     13.18107     10.18874        -0.063620      0.380521      1.325486
Ti       9.34709      5.61362      2.05180         0.610835      0.049254      0.320117
Ti       9.31480      5.59057     14.40311        -0.184744     -0.242271     -0.580067
Ti       9.32912      5.61627      6.14447        -0.364567     -0.988014      0.287743
Ti       9.28778      5.61282     10.32481         0.314731      0.148532     -0.680957
Ti       9.45586      9.29114      1.99838        -0.410308      0.749805      1.158073
Ti       9.33707      9.27901     14.30826         1.211862      0.021368      1.224827
Ti       9.39020      9.21848      6.25335         0.643311      2.646861      0.550495
Ti       9.26616      9.40862     10.32986         0.875356     -0.772359     -1.536877
O       1.77583      1.85857      0.27837         0.195868      0.181124      0.943569
O       1.72411      1.93807     12.61866         0.700087     -0.534559     -0.281027
O       1.85863     13.06779      0.33494        -0.274213     -0.201109      0.519099
O       1.73830     13.18225     12.70794         0.232187     -0.139545     -1.344132
O      13.11496      1.74138      0.22952        -0.224819      0.344181      0.330770
O      13.12851      2.08916     12.48485         0.084010     -1.136049      1.556457
O      12.94344     13.09765      0.19759         0.890060      0.240475      0.638745
O      13.04574     13.11045     12.61991         0.282962     -0.337250      0.443946
O       1.75888      1.81180      4.36794         0.154638     -0.004550      0.062086
O       1.86716     13.07244      4.41313         0.303832      0.294192      0.002645
O      13.05630      1.86591      4.29286         0.197595      0.293088      0.429256
O      13.02793     12.98948      4.39600         0.242186      0.297763     -0.515489
O       1.86536      1.86825      8.35013        -0.411533      0.119273      0.446273
O       2.03180     13.27291      8.44002        -0.733034     -1.035709      0.208545
O      12.94403      1.83406      8.61810         0.129955     -0.496801     -1.463129
O      13.08886     13.12698      8.43808        -0.112871      0.109607      0.187028
O       1.89902      5.58722      0.28204        -0.014764      0.015785     -0.579679
O       1.96891      5.52057     12.63343        -0.480076      0.411840     -0.986356
O      13.12448      5.70629      0.09509         0.347548     -0.525899      1.443497
O      13.16778      5.53233     12.52845        -0.856340      0.764819      0.098105
O       1.90142      5.58964      4.40590        -0.575981      0.130372     -0.017396
O      13.07980      5.63444      4.45048         0.174309     -0.322922     -0.798054
O       1.79692      5.53600      8.47544        -0.234542     -0.070405      0.925828
O      13.19004      5.72698      8.46909        -0.382699     -0.287608     -0.033979
O       1.94447      9.30123      0.21514         0.004513      0.618445     -0.083812
O       1.81673      9.45850     12.57376        -0.320303     -0.165984     -1.419053
O      13.26216      9.25170      0.32330        -0.274862      0.378968     -1.677131
O      13.12712      9.39687     12.60197         0.119382      0.026530     -1.069703
O       1.81468      9.35832      4.42811        -0.105449     -0.104545      0.089922
O      13.23594      9.38598      4.36898         0.127986     -0.537348      0.223171
O       1.91192      9.27394      8.47745         0.128682      0.710415     -0.059061
O      12.98953      9.30507      8.53747         0.368556      0.172664     -1.048491
O       5.62370      1.71805      0.24473        -0.007261      0.629311      0.961713
O       5.58680      1.94777     12.48386        -0.151093     -0.109264      0.412407
O       5.66022     13.18701      0.25269        -0.050193     -0.080905      0.098038
O       5.59242     13.13656     12.52000        -0.029025     -0.215477      0.126094
O       5.75168      1.96907      4.47423        -0.515233     -0.537743     -0.627158
O       5.57471     13.12657      4.46982        -0.187867      0.015727     -1.073964
O       5.73448      1.86940      8.43299        -0.627826     -0.226227     -0.435189
O       5.50548     13.18196      8.36845         0.434981     -0.237434     -0.477944
O       5.47525      5.68245      0.21059         0.303786     -0.538938      0.675474
O       5.55642      5.56936     12.52933        -0.051171      0.147559     -0.106438
O       5.54657      5.50366      4.40600         0.348817      0.556027     -0.512986
O       5.57512      5.72671      8.45402        -0.032449      0.063756     -0.114552
O       5.63219      9.41291      0.27106         0.166966     -0.411011     -0.280560
O       5.63321      9.35196     12.54185        -0.073156      0.363121     -0.163804
O       5.79116      9.34837      4.26517        -0.427396      0.262260      1.322157
O       5.61526      9.27814      8.45832        -0.449692      0.585032     -0.735902
O       9.27989      2.03354      0.27707         0.215571     -0.644024     -1.041934
O       9.23456      1.84981     12.59597         0.451366     -0.096754     -0.249488
O       9.31877     13.08090      0.24800         0.094211     -0.326022     -0.737007
O       9.41267     13.17463     12.64657        -0.187641     -0.225339      0.584046
O       9.26811      1.71925      4.31996         0.308859      0.258471      0.004770
O       9.50397     13.07412      4.28164        -0.427944      0.149913      0.768553
O       9.49675      1.84895      8.48715        -0.342423      0.060226      0.167115
O       9.30425     13.10692      8.40694         0.370020      0.139826      0.089057
O       9.51416      5.56562      0.24214        -0.847113      0.048705     -0.023665
O       9.41785      5.70442     12.54330        -0.303671      0.005568     -0.024861
O       9.40365      5.61742      4.31602         0.004550      0.025569      0.154547
O       9.42770      5.64324      8.47976        -0.324203     -0.141428      0.178274
O       9.29559      9.22862      0.24017         0.240570      0.444847     -1.198810
O       9.24875      9.26229     12.52981         0.509399      0.149311     -1.173160
O       9.34151      9.29427      4.48303         0.184844      0.153419     -1.280651
O       9.28472      9.37332      8.46178         0.448754      0.122550      0.616512
O       3.75081      1.79594      2.39295         0.398920     -0.144483      0.063939
O       3.68362      2.05703     14.75524         0.748650     -0.068171     -0.539444
O       3.76747     13.28079      2.30462        -0.054210      0.053033      0.389106
O       3.69448     12.96382     14.71939         1.119140     -0.389026     -0.218447
O      14.90746      1.83232      2.37261         0.797457      0.805069      0.026397
O      15.00921      1.58785     14.73657        -0.783774      0.348733     -0.144802
O      14.98335     13.02426      2.44435         0.986018     -0.426507     -0.431424
O      14.96530     13.20121     14.77616        -0.954521      0.322027     -0.146703
O       3.64258      1.63154      6.41980         2.610397      0.129731     -0.322840
O       3.73346     13.37694      6.45439         0.696860     -0.656867     -0.223394
O      14.92059      1.93916      6.34400        -0.051675      0.038401      0.576126
O      14.99416     13.04135      6.56582        -0.265903     -0.139795     -0.138668
O       3.73875      1.61149     10.50606        -0.466923      0.016453      0.104551
O       3.76010     13.27669     10.66312        -1.020689      0.511013     -0.306713
O      14.97426      2.07606     10.50085         0.634664      0.305382     -0.116532
O      14.98179     12.97960     10.56949         0.324339     -0.390462     -0.048351
O       3.72625      5.68702      2.46335         0.376832      0.144037     -0.512075
O       3.71825      5.40493     14.58880        -1.489656     -0.028885      0.572374
O       0.01229      5.32950      2.34855        -0.406962      0.444923     -0.090956
O      14.93423      5.69922     14.54088         0.731130      0.822245      0.341064
O       3.68472      5.73562      6.48217         0.827131      0.279121     -0.114023
O      14.96833      5.43223      6.45173        -0.314495     -0.594525     -0.022991
O       3.70138      5.97801     10.49298        -0.473018     -0.937335      0.184242
O      14.95303      5.33549     10.63921         0.642058      0.717022     -0.536938
O       3.80277      9.21662      2.40945         0.956448     -0.445341      0.167495
O       3.81608      9.50444     14.63887        -1.822627      0.185409     -0.302270
O       0.12072      9.64895      2.21926        -0.325968     -0.315180      0.551547
O      14.98134      9.14420     14.59593         0.463754      0.039900      0.185632
O       3.76259      9.20833      6.28818        -0.001574      0.094466      0.495609
O       0.04109      9.52642      6.71640        -1.288520     -0.210275     -0.744361
O       3.60870      9.42104     10.60429         1.094361     -0.874843      0.170688
O      14.96852      9.70110     10.38897        -1.296261     -0.183079      0.716760
O       7.50793      1.98288      2.45270        -1.223068      0.004119     -0.316269
O       7.38569      1.68974     14.65282         0.616248     -0.021006     -0.013158
O       7.50951     12.86283      2.39058         0.391208      0.799734      0.089485
O       7.42747     13.31252     14.60226         0.758757     -0.105224      0.260138
O       7.53937      2.14197      6.47887        -0.218072     -0.929372     -0.115200
O       7.49617     12.93509      6.31601         0.436297     -0.180673      0.319100
O       7.46017      2.08344     10.54381        -0.014170      0.080574     -0.037442
O       7.51151     13.02858     10.57034        -0.564043     -0.595038     -0.251360
O       7.45973      5.50338      2.39121         0.560425     -0.066227     -0.521185
O       7.43792      5.75048     14.70153         0.496504      0.147349     -0.242349
O       7.44255      5.46439      6.54138         0.513416      0.000979     -0.531710
O       7.41346      5.40009     10.45979         0.845562      0.329679      0.484163
O       7.57293      9.44473      2.28566        -0.538027      0.122935      0.254801
O       7.50389      8.96434     14.49311        -0.264229      0.660914      0.559165
O       7.52229      9.55482      6.46333         0.127916      0.167900      0.149623
O       7.41873      9.51586     10.43487         0.023277      0.966592      0.717574
O      11.16190      1.76921      2.46248         1.615710     -0.404638     -0.443601
O      11.25716      2.14761     14.60881        -1.296471     -0.402057     -0.320501
O      11.29698     13.30559      2.39000        -0.938761     -0.511549     -0.448423
O      11.16216     12.87307     14.78674         1.200966      0.053598     -0.517099
O      11.18811      1.65629      6.34776         0.989883     -0.268910      0.450645
O      11.21744     13.20728      6.43086        -0.035306      0.623205      0.555893
O      11.22881      1.85301     10.73739        -0.627955     -1.167687     -0.085580
O      11.23553     13.30952     10.61786        -0.268191      0.562133     -0.394565
O      11.28135      5.77183      2.28701         0.387748      0.310159      0.273198
O      11.28962      5.27595     14.69296        -1.697264      0.325959     -0.737544
O      11.15337      5.80644      6.40294         1.860777      0.058882      0.303731
O      11.20437      5.92970     10.52861         0.181745     -0.025950     -0.074913
O      11.36725      9.15290      2.24084        -0.303458     -0.017446      0.528697
O      11.28438      9.41231     14.72984        -0.835800      0.438638     -0.329509
O      11.27639      9.19562      6.41900         0.676264     -0.362569      0.074599
O      11.18580      9.16426     10.55612        -0.060482     -0.157239      0.381233
O       2.01627      3.70301      2.50834        -0.405119      0.229462     -0.493432
O       1.70334      3.77136     14.69197        -0.196256     -0.940207      0.342843
O       1.90082     14.99930      2.43587        -0.733528     -0.325111      0.008880
O       2.08693     14.96293     14.73612        -0.406170      0.418888     -0.345384
O      12.98615      3.77770      2.19936         0.102907     -1.062578      0.240489
O      13.36659      3.72849     14.65169        -0.117004     -0.319719      0.186458
O      13.29175     14.90216      2.47571        -0.644323      1.489866     -0.427950
O      12.87503      0.04030     14.63467        -0.040625     -1.798249     -0.351122
O       2.07421      3.68411      6.45295        -0.649780      0.746939     -0.183980
O       1.75975     14.97424      6.52689        -0.749276      1.053174     -0.169359
O      12.95896      3.70022      6.55859        -0.229879     -0.177654     -0.208562
O      13.20260     14.94557      6.37738        -0.092485      1.266539      0.243347
O       2.13927      3.68003     10.53445        -0.299462      0.774951     -0.250462
O       1.62198      0.04343     10.48738        -0.002455     -1.370931      0.585473
O      12.89758      3.77964     10.47281        -0.105733      0.722251     -0.279510
O      13.40234     14.93950     10.62820        -0.931701      1.023054     -0.095323
O       1.74384      7.50798      2.39624        -0.225354     -0.623789     -0.131757
O       1.98839      7.50176     14.69626         0.327540     -0.409762     -0.285122
O      13.51704      7.42806      2.32975        -0.494802      0.617426      0.063975
O      12.81984      7.44251     14.75880         1.090038      1.258736     -1.305900
O       1.62724      7.45741      6.54445         0.320838      0.286975     -0.295927
O      13.32716      7.45944      6.49190        -0.176145      0.121857     -0.216202
O       1.63342      7.45846     10.63740        -0.530703      1.046673     -0.012955
O      13.33800      7.52991     10.67715        -0.135201     -0.143673     -0.340302
O       2.17253     11.20234      2.50738        -0.492125      0.396046     -0.393221
O       1.72833     11.22119     14.64144        -0.365974     -0.880451      0.348560
O      13.10170     11.26499      2.38919        -0.606950     -1.146797     -0.395237
O      13.25959     11.20315     14.78966        -0.077771     -0.050335     -0.414717
O       1.96642     11.26527      6.50135         0.425680     -0.131312      0.331483
O      12.93168     11.21648      6.44246         0.349462     -0.584191      0.441660
O       1.98812     11.34607     10.55131        -0.196130     -0.966634      0.038807
O      12.79960     11.28562     10.51498         0.559434     -0.874271      0.194518
O       5.55502      3.74817      2.51182        -0.046951     -0.154890     -0.900158
O       5.74722      3.76297     14.67989        -0.034919     -0.886105     -0.110483
O       5.77030      0.00751      2.46091         0.168823     -0.069790     -0.008967
O       5.38259     14.99777     14.46324        -0.198250      0.176533      0.354650
O       5.41855      3.71669      6.51351        -0.031441      0.802958      0.104222
O       5.89395      0.02111      6.38723        -0.159349     -0.244518      0.168445
O       5.38788      3.76355     10.35286        -0.436688      0.242519      0.641914
O       5.83347     15.00036     10.50365        -0.093423      0.882482      0.141321
O       5.73597      7.42666      2.49648        -0.229617      0.343922     -0.616427
O       5.39712      7.48728     14.73937         0.055781     -0.044973     -0.463527
O       5.77226      7.57818      6.40275        -0.275669     -2.323450     -0.053657
O       5.67202      7.57560     10.58929         0.353102     -0.386514      0.052321
O       5.52110     11.24471      2.35888        -0.415925     -0.289892     -0.069055
O       5.83450     11.23323     14.61506        -0.005633     -0.077972      0.029813
O       5.41486     11.19081      6.35722        -0.103558      1.436737      0.859198
O       5.35978     11.31729     10.47691         0.761230     -0.119287      0.058417
O       9.50447      3.70786      2.24667        -0.105507      1.569913      1.012353
O       9.10686      3.74374     14.49572        -0.027496     -0.560791      0.587449
O       9.28101     14.94819      2.18145        -0.401666     -0.163928      0.305544
O       9.54557      0.00275     14.66329         0.129960     -0.653656      0.303879
O       9.66975      3.70162      6.28236        -0.610802      0.272686      0.286748
O       9.18995     14.96104      6.53766         0.159274      0.056541     -0.652849
O       9.47454      3.74198     10.48401         0.367967      1.002029      0.500315
O       9.10386      0.03524     10.59174         0.803736     -0.712441     -0.313829
O       9.19994      7.50922      2.43245         0.525285     -1.153626     -0.334689
O       9.52727      7.40082     14.69529         0.520138      0.870384      0.026764
O       9.24336      7.45511      6.44184        -0.614409     -0.751844      0.475601
O       8.99305      7.53688     10.41452         0.489709     -0.682332      0.556214
O       9.53681     11.17277      2.31582         0.513028     -0.125130      0.106877
O       9.14827     11.10160     14.57572        -0.101483      1.116882      0.225589
O       9.57485     11.21882      6.53657        -0.552389      0.521537     -0.331615
O       9.53156     11.29880     10.59642        -0.283858     -0.373041     -0.009119
