  # total energy = -7881.86502233 
CRSYTAL
PRIMVEC
    15.3600000000000000    0.0000000000000000    0.0000000000000000
     0.0000000000000000   15.3600000000000000    0.0000000000000000
     0.0000000000000000    0.0000000000000000    17.440000000000000
PRESSURE
2.05012 1.54662 1.31021 0.059365 -0.031342 0.003518
PRIMCOORD
320 1
Pb       3.94485      3.78635      4.34988        -0.541426     -0.052238      0.241578
Pb       3.85258      3.80577      0.00355         0.166608     -0.030406     -0.707845
Pb       3.79719      0.02811      4.35979         0.098621     -0.376799     -0.190035
Pb       3.84374     15.29886     17.32181        -0.319493      0.133094      0.127509
Pb       0.06539      3.84201      4.32619        -0.335716     -0.221491     -0.165799
Pb       0.00809      3.79779     17.42063         0.158822     -0.202689     -0.183654
Pb       0.04962      0.02260      4.37947         0.311011     -0.195633     -0.572085
Pb      15.26191      0.09939     17.34662         0.456163     -0.439849     -0.194955
Pb       3.74819      3.88105      8.62294         0.128167     -0.332313      0.435675
Pb       3.71961     15.26613      8.68971         0.116906      0.482736      0.151778
Pb      15.16206      3.92451      8.67145         0.608113     -0.635332      0.233466
Pb      15.28495     15.27254      8.71334         0.158600      0.009407      0.181509
Pb       4.02707      3.68865     12.99191        -0.836274      0.838772      0.271960
Pb       3.83289     15.35231     12.96384        -0.096862      0.186943     -0.055577
Pb       0.02017      3.77624     13.00857        -0.292399      0.191283      0.163705
Pb      15.26319     15.19255     13.00954         0.348090      0.985594      0.656653
Pb       3.84809      7.68950      4.30359         0.415673      0.202464      0.047725
Pb       3.79022      7.68832      0.03030         0.102033     -0.137317     -0.311112
Pb       0.06948      7.66638      4.26892        -0.752369      0.025460      0.186153
Pb       0.09585      7.68808      0.04757        -0.032835     -0.066550     -0.428296
Pb       3.72503      7.65273      8.63280         0.519253      0.013534      0.051694
Pb      15.19894      7.66888      8.65992         0.609262      0.386722      0.268321
Pb       3.89771      7.59551     13.09105        -0.486184     -0.286484     -0.005802
Pb      15.35051      7.68199     13.04046         0.262319     -0.258867      0.003360
Pb       3.81986     11.48804      4.35788         0.488055      0.293797     -0.327605
Pb       3.81199     11.52576     17.40639        -0.184693      0.012293     -0.091636
Pb       0.07144     11.55493      4.25059        -0.306403     -0.067276      0.287911
Pb      15.23056     11.45442      0.01011         0.788152      0.214900     -0.255829
Pb       3.84935     11.43546      8.68668        -0.063264      0.563218     -0.046663
Pb       0.03379     11.50159      8.71422        -0.376158      0.414449      0.153989
Pb       3.87328     11.36711     12.95271        -0.096046      0.159818      0.056701
Pb       0.10580     11.42636     13.01053        -0.284110      0.217745      0.305342
Pb       7.64106      3.81437      4.17196         0.718417      0.199325      1.311125
Pb       7.70633      3.76363      0.06065        -0.191752      0.118990     -0.619854
Pb       7.63205     15.28865      4.38024         0.292579     -0.161367     -0.038353
Pb       7.52671     15.32979     17.39589         0.002234      0.188017     -0.173178
Pb       7.48248      3.91536      8.61367         0.629705     -0.136811      0.530780
Pb       7.66044      0.08663      8.72953        -0.138936     -0.053541     -0.193835
Pb       7.75060      3.85956     13.00498        -0.417387     -0.048104     -0.522116
Pb       7.71270      0.03713     12.93939        -0.124765     -0.523918      0.013367
Pb       7.70768      7.64124      4.31631        -0.280700     -0.119290     -0.247698
Pb       7.57974      7.69965      0.01629        -0.301870     -0.454039     -0.081328
Pb       7.74629      7.61278      8.72605        -0.416041      0.021353     -0.296511
Pb       7.72542      7.69164     13.12353        -0.429744     -0.197956     -0.168704
Pb       7.64126     11.39076      4.33986         0.002057      0.501981     -0.018883
Pb       7.57618     11.63418     17.23232        -0.242855     -0.509996      1.072602
Pb       7.79573     11.54030      8.74881        -0.526467      0.134215     -0.423082
Pb       7.71740     11.61652     12.95324        -0.169660      0.333409     -0.227831
Pb      11.51356      3.72697      4.26746        -0.336867      0.383847      0.577191
Pb      11.59366      3.85079      0.12798        -0.357030     -0.172325     -0.166319
Pb      11.65981     15.31990      4.36179        -0.865129      0.029213      0.146923
Pb      11.27191     15.28015      0.01967         0.541109      0.224849     -0.186502
Pb      11.53463      3.84062      8.60773        -0.309771     -0.112289     -0.159666
Pb      11.42997      0.06446      8.69916         0.342060     -0.359764     -0.546999
Pb      11.46043      3.76480     12.99765         0.551226      0.356394      0.002513
Pb      11.41089     15.28702     13.11870         0.481241      0.203079      0.128108
Pb      11.57168      7.51020      4.32497         0.107842      0.389925     -0.316255
Pb      11.39342      7.74570     17.40743         0.372875     -0.279827     -0.039008
Pb      11.60231      7.70003      8.63310        -0.127527      0.355809     -0.071718
Pb      11.38874      7.54106     13.16737         0.474258      0.473404     -0.496066
Pb      11.45308     11.50125      4.23531         0.126567     -0.032238      0.579294
Pb      11.42540     11.50808     17.35058         0.365687      0.142905      0.859307
Pb      11.37300     11.40857      8.70681         1.005575      0.224854     -0.238753
Pb      11.59109     11.49511     13.04893        -0.228686     -0.407402      0.521723
Ti       1.96197      1.90468      2.36886        -0.508038     -0.847398      0.213214
Ti       1.93054      1.92203     15.36600        -0.605205     -0.084957     -0.236595
Ti       1.94898     13.42534      2.25141         0.610084      0.334154     -0.658910
Ti       1.93747     13.49955     15.32315        -1.420087     -0.464092      0.170102
Ti      13.46357      1.83865      2.27121        -0.016070      0.781754     -0.263883
Ti      13.29011      1.87657     15.51535         0.961513     -0.770980     -1.014879
Ti      13.39345     13.42819      2.34636         0.966598     -0.176051      1.114676
Ti      13.47702     13.30990     15.43256        -0.001206      1.826990     -0.541726
Ti       1.85907      1.98384      6.70147         0.091245     -0.764694     -0.780435
Ti       1.92535     13.45830      6.66839        -0.563912      0.176495      0.929108
Ti      13.46572      1.85979      6.64638        -0.940159      0.458994      1.568904
Ti      13.39659     13.38909      6.71977        -0.426798      0.077528      0.529612
Ti       1.87861      2.01175     10.96333        -0.618299     -0.932569      1.076018
Ti       1.93031     13.48456     11.14212        -0.502248      0.244545     -1.305992
Ti      13.34983      1.93097     11.06448         0.741619     -0.061149      0.012727
Ti      13.43456     13.48671     11.12421         0.054721     -0.988044     -0.910943
Ti       1.95150      5.74860      2.39622        -0.593032     -0.425348     -0.196598
Ti       1.86995      5.75488     15.48507         0.578953     -0.624367      0.135391
Ti      13.46729      5.68775      2.34630        -0.299554      0.038421     -0.028361
Ti      13.33613      5.69754     15.49150         0.912727      0.033840      0.341682
Ti       1.86814      5.78698      6.64745         0.127558      0.173867     -1.072357
Ti      13.45618      5.73101      6.65677        -0.564548      0.124527     -0.378597
Ti       1.91251      5.82703     10.98598        -0.192154     -0.554703      1.091822
Ti      13.43612      5.80419     11.02194         0.030428     -1.267892      1.339310
Ti       1.94522      9.56708      2.28161         0.579130      0.662426     -0.881366
Ti       1.96295      9.65415     15.41730        -0.794981      0.051227     -0.957501
Ti      13.48588      9.67704      2.32573        -0.605984     -1.223866      0.023942
Ti      13.36394      9.52050     15.47259         1.239808      0.236200     -0.286892
Ti       1.88911      9.63223      6.65708        -0.113544      0.125228     -0.668920
Ti      13.48221      9.65165      6.68119        -0.593886     -0.162954     -1.893838
Ti       1.94134      9.59620     10.96854        -0.490333     -0.206197      2.168404
Ti      13.37865      9.60175     11.09509        -0.433037      0.479298     -1.487590
Ti       5.78705      1.89049      2.38858        -0.028048     -0.840175     -1.287594
Ti       5.74904      1.88125     15.33809         0.398269     -0.080088      0.516201
Ti       5.73520     13.49454      2.29187        -0.685415     -0.387100      0.714708
Ti       5.67477     13.34833     15.26452         0.021033      0.979248     -0.947810
Ti       5.69672      1.98473      6.73820         0.249864     -0.886627      1.434885
Ti       5.77876     13.53032      6.78771        -0.010156     -0.615719     -0.802787
Ti       5.77794      1.91142     11.04538        -0.072876      0.840518     -0.157951
Ti       5.73637     13.38802     10.96509         1.157864      0.311109      0.335796
Ti       5.71462      5.72864      2.39608         1.122767      0.590707     -1.313824
Ti       5.72603      5.71041     15.40199        -0.186231     -0.507760     -0.237198
Ti       5.65620      5.80107      6.59222         1.149808      0.251312      0.009350
Ti       5.75321      5.82106     11.04881        -0.220463     -0.675944      1.643396
Ti       5.78391      9.67162      2.32561         0.221966     -0.913928      0.209783
Ti       5.70210      9.48393     15.31042        -0.378638      0.279459      1.321934
Ti       5.76085      9.66175      6.72063         0.163244     -0.391697     -1.181477
Ti       5.71481      9.48819     10.90324        -0.247727      0.346107      1.861311
Ti       9.60571      1.81680      2.42504        -1.151737      0.774726     -0.462491
Ti       9.53680      1.84746     15.36008        -0.681036      1.065470      0.894193
Ti       9.57544     13.40455      2.34041        -0.562520      0.183116      0.380644
Ti       9.57392     13.43025     15.44609        -0.345230     -0.444132     -1.443911
Ti       9.53657      1.98876      6.72895         0.295728     -0.565562      0.907684
Ti       9.55232     13.41278      6.70985         0.914306      0.824517     -0.831603
Ti       9.61001      1.95854     10.98950        -0.572616     -0.268758      1.993146
Ti       9.74766     13.39931     10.95954        -1.543693      0.429476      0.875613
Ti       9.56881      5.73294      2.30526        -0.190288     -0.637398      1.876535
Ti       9.58012      5.77367     15.42549        -1.252494     -0.749027     -0.055440
Ti       9.60193      5.81376      6.74050        -0.859620     -1.750285     -1.763956
Ti       9.60147      5.80494     10.95189        -0.056744     -0.104642      0.912346
Ti       9.67550      9.58655      2.26140        -1.413860      0.220251      1.646715
Ti       9.52123      9.65256     15.46502         0.207845     -0.324847      0.119837
Ti       9.60328      9.56018      6.56201         0.321934      0.291690      0.808824
Ti       9.48151      9.57273     11.08052         1.136489     -0.057381      0.675556
O       1.89207      1.73867      0.65282         0.389654      0.589604     -0.547360
O       1.91613      1.99589     13.59828        -0.056193     -0.217393      0.312246
O       2.09164     13.45344      0.46057        -0.372048     -0.071840      0.753460
O       1.80161     13.62339     13.54234         0.660131     -0.614049     -0.460275
O      13.36179      1.87263      0.48242        -0.136398     -0.065817      0.197528
O      13.39330      1.84799     13.76108        -0.386060      0.513739     -0.362511
O      13.60912     13.37093      0.67640        -0.252368     -0.013888     -2.046495
O      13.32198     13.33256     13.67365         0.278982     -0.063906     -0.324712
O       1.78373      1.94267      4.86457         0.354448      0.010346      0.722310
O       1.85844     13.52177      4.93485         0.502378     -0.464146     -0.060892
O      13.44054      1.92775      4.94089        -0.057006     -0.580397     -1.471207
O      13.39610     13.46581      4.97971        -0.151463      0.085732     -1.175569
O       1.91305      1.94388      9.23424         0.109569      0.132536     -0.775591
O       1.77401     13.51592      9.36177         0.419968      0.093476     -0.342164
O      13.28884      1.93287      9.31387        -0.239640      0.065497     -0.923903
O      13.40021     13.45717      9.36208         0.044017      0.177819     -0.318833
O       1.91748      5.86135      0.64927         0.284846     -0.162996     -0.644870
O       1.83646      5.71183     13.77573        -0.296905      0.076958     -1.198789
O      13.22908      5.64077      0.60659         0.278480      0.256800     -0.741743
O      13.42535      5.72521     13.78415        -0.085486     -0.201988     -1.300924
O       1.74437      5.75691      4.82410         0.451758      0.005600      0.911785
O      13.49987      5.56078      4.92770        -0.236354      0.932567     -0.724064
O       1.83227      5.88520      9.24254         0.170671     -0.420289     -0.778009
O      13.52788      5.82050      9.27341        -0.236390     -0.306043     -1.317857
O       2.01321      9.50277      0.47323        -0.320468     -0.030675      0.628963
O       1.94868      9.67856     13.59060        -0.035389     -0.289854      0.625426
O      13.53151      9.59574      0.54894        -0.560997     -0.064774     -0.280547
O      13.36552      9.66250     13.73096         0.428956     -0.258786     -0.649003
O       1.85528      9.73310      4.85329         0.257544     -0.365136      0.454179
O      13.51223      9.59196      4.87561        -0.121470      0.115146      0.452127
O       1.82135      9.41634      9.28942         0.188200      0.554040     -2.042143
O      13.40734      9.61403      9.24892         0.125318     -0.236706      1.096986
O       5.79155      1.81418      0.60063        -0.091923      0.257241      0.141417
O       5.82726      2.02113     13.58501        -0.036756     -0.051927     -0.624345
O       5.61876     13.52045      0.53072         0.137464     -0.110682     -0.042493
O       5.67691     13.34301     13.46364         0.239848     -0.073188      0.391490
O       5.68373      1.95434      5.03594         0.010097     -0.048076     -1.801352
O       5.68380     13.39092      5.01106         0.297396      0.368119      0.303331
O       5.79521      2.02452      9.31772        -0.181065     -0.305408     -1.269564
O       5.92061     13.51018      9.22076        -0.659080     -0.335410     -0.267994
O       5.89842      5.74772      0.59846        -0.730999     -0.108633      0.471402
O       5.64432      5.73667     13.59296         0.616524      0.065651      0.605758
O       5.86784      5.70926      4.84471        -0.682644     -0.047979     -0.030815
O       5.61841      5.98757      9.38081        -0.030229     -0.121092     -2.897318
O       5.80021      9.61937      0.57741        -0.119082     -0.263522     -0.051993
O       5.61565      9.36708     13.55389         0.287321      0.963472      0.781447
O       5.74587      9.76419      4.88165        -0.272339     -0.397921      1.129562
O       5.67001      9.44230      9.18760         0.171168      0.073344     -1.645151
O       9.51435      1.87606      0.68115         0.178099     -0.464855     -1.189541
O       9.56269      1.94150     13.61406        -0.243316     -0.099818     -0.699997
O       9.63723     13.46065      0.59717        -0.507645      0.033476     -0.908193
O       9.56647     13.29694     13.66860        -0.076644      0.342584      0.074733
O       9.52794      1.94731      5.03210        -0.049550      0.048593     -1.906651
O       9.55919     13.44415      4.92612         0.020026     -0.169661      0.056056
O       9.63148      1.74863      9.31347         0.067317      0.507670     -1.913228
O       9.71096     13.37153      9.19488        -0.084547     -0.087764      0.081015
O       9.54914      5.81479      0.59848         0.185145     -0.097661     -1.565366
O       9.65338      5.85294     13.62258        -0.465756     -0.410862      0.719441
O       9.49265      5.58137      4.93273         0.320334      0.883501      1.061220
O       9.66932      5.94087      9.22600        -0.051982      0.165790     -0.832654
O       9.62170      9.65556      0.53767        -0.049598     -0.388586     -1.333873
O       9.55168      9.52095     13.74009        -0.383299      0.356763     -0.873798
O       9.59319      9.70121      4.83851         0.030149     -0.348022     -0.438918
O       9.69172      9.61725      9.36008        -0.565703     -0.319389     -1.113454
O       3.88995      1.98176      2.78091        -1.160988     -0.347859      0.191452
O       3.87821      1.95355     15.74084        -0.273668     -0.307095      0.205481
O       3.86283     13.55588      2.83617        -0.352655     -0.941082     -0.162940
O       3.76840     13.45430     15.68293         0.723513      0.059418      0.110722
O      15.30854      1.76209      2.65775         0.502581      0.416717      0.170546
O      15.35975      1.97304     15.85790        -0.419285     -0.079335      0.073542
O       0.13180     13.38825      2.73491        -1.168845      0.009689      0.032285
O      15.35960     13.37045     15.67130        -0.089348      0.137449      0.501839
O       3.73929      1.89563      7.09669         0.932800      0.504302      0.147784
O       3.88781     13.36856      7.19179        -1.111978      0.298392     -0.047113
O      15.32237      1.91841      7.01579         0.108086      0.089049      0.512436
O      15.30991     13.41196      6.99780         0.714331      0.374219      0.656242
O       3.85959      1.96822     11.39533        -0.652795     -0.177194     -0.014578
O       3.87686     13.60563     11.26441        -0.427269     -0.296150      0.310606
O      15.22427      1.92802     11.16848         0.988923     -0.180085      0.857581
O      15.33473     13.37483     11.31919        -0.152066      0.209977      1.093479
O       3.85032      5.76501      2.69556        -1.117259     -0.166644      0.536379
O       3.84902      5.61147     15.77218        -0.085033      0.129056      0.713221
O      15.35287      5.76224      2.64656        -0.027056     -0.134298      0.347834
O      15.33503      5.69996     15.95324        -0.547272      0.305743     -0.007173
O       3.76301      5.70378      6.97799        -0.198497     -0.192957      0.187043
O      15.35976      5.74754      7.01472        -0.031905      0.087573      0.497202
O       3.79768      5.84652     11.39974        -0.740667     -0.549933      0.075142
O      15.33939      5.68295     11.45854        -0.090625      0.512314      0.174682
O       3.88328      9.41219      2.68340        -0.719145      0.505172      0.136100
O       3.81459      9.66030     15.85730         0.972156     -0.591774     -0.276135
O      15.31761      9.79260      2.50623         1.396600     -0.890854      0.666968
O       0.04093      9.48119     15.81545        -0.528987      0.057437      0.166053
O       3.78629      9.73584      7.10938         0.183732     -0.233544     -0.219793
O       0.02728      9.59673      7.01163        -0.056347      0.156360      0.567987
O       3.83741      9.61418     11.35650        -0.283823     -0.400687     -0.006763
O       0.02012      9.76370     11.41259        -0.661062     -0.903783      0.076681
O       7.65425      1.77696      2.70703        -0.269869      0.357772      0.688002
O       7.63185      1.71838     15.81438        -0.009587      0.351608      0.079565
O       7.62318     13.45948      2.66964         0.036863      0.238849      0.194643
O       7.52494     13.43559     15.70905         1.024293     -0.364941      0.245534
O       7.63473      1.97925      7.16275        -0.272497     -0.059110      0.110506
O       7.67594     13.57006      7.13642         0.373901     -0.976012      0.146060
O       7.67229      1.90133     11.45815         1.297039      0.320421      0.151763
O       7.75199     13.39443     11.23134        -0.101908     -0.001018      0.890542
O       7.60853      5.70941      2.71408         1.337959      0.223399      0.151693
O       7.63069      5.85196     15.86380         0.550894      0.106631     -0.371105
O       7.57041      5.82608      7.18580         0.179332      0.361969     -0.107531
O       7.65948      5.77457     11.17552         1.281162      0.320129      0.823617
O       7.71214      9.59216      2.80037        -0.501946     -0.429620     -0.386643
O       7.57482      9.58109     15.83519         0.078833      0.168939     -0.477158
O       7.69233      9.51521      6.97823        -0.421172      0.067617      0.420734
O       7.52759      9.56926     11.28633         1.966282     -0.027925      0.556273
O      11.40791      1.96450      2.75189         2.473442     -0.484326      0.106708
O      11.34805      1.66831     15.77899         0.868965      0.962315      0.314030
O      11.51618     13.31823      2.56960        -0.153625      0.542184      0.664491
O      11.44298     13.28677     15.88703         0.681117      0.859412     -0.197127
O      11.48909      2.11251      7.01267         0.391385     -0.842777      0.471661
O      11.45327     13.36494      7.11157         0.515006      0.529150     -0.054274
O      11.42600      1.85011     11.50111         0.442022      0.402323      0.207446
O      11.57068     13.30435     11.56760        -1.496046      0.648122     -0.502376
O      11.52352      5.61398      2.75719        -0.261424      0.404019      0.159784
O      11.37962      5.59619     15.84737         0.349474      0.480899      0.259555
O      11.49979      5.84004      7.06659         0.677494     -0.382868     -0.054919
O      11.52888      5.74512     11.45719        -0.219169      0.442924      0.022126
O      11.46828      9.63514      2.67023         1.129871     -0.134739      0.139623
O      11.52710      9.74769     15.78914        -0.955636     -0.496040      0.422440
O      11.52830      9.55003      6.94903        -0.206102     -0.103801      0.496367
O      11.43985      9.52814     11.41828         0.830065     -0.024342      0.315852
O       1.81913      3.83523      2.67601         0.489455     -0.184358      0.073856
O       1.98043      3.73434     15.92754        -0.442683      0.968954      0.405236
O       1.96193     15.29955      2.71412        -0.024092      0.775388      0.508137
O       1.76661      0.00442     15.81672         0.892141      0.140414     -0.242593
O      13.47665      3.71724      2.66927        -0.082709      0.447039      0.161637
O      13.37083      3.79726     15.90603        -0.516128     -0.137507      0.262872
O      13.45396     15.34269      2.73540        -0.698780     -0.635589      0.288582
O      13.41412     15.32125     15.72333         0.050601     -0.607270      0.826569
O       1.93868      3.83272      7.14650        -0.716575      0.775346     -0.355839
O       1.94249      0.04420      7.08698        -0.339538     -1.020744      0.008380
O      13.44048      3.85321      6.95725         0.118496      0.022491      1.200546
O      13.40075     15.35077      7.19034        -0.337081      0.173351     -0.527463
O       1.77442      3.82736     11.49893         0.967118      0.489893     -0.853737
O       1.80728      0.05790     11.49942         0.455492      0.128800     -0.253547
O      13.39428      3.81711     11.46885        -0.499456      0.173608      0.071406
O      13.32767     15.32945     11.59356        -0.051329      0.204373     -0.406280
O       1.82837      7.70942      2.72551         0.134099     -0.162033      0.194692
O       1.99974      7.63849     15.76819        -0.079507      0.228264      0.482830
O      13.47246      7.60621      2.73454        -0.419503      0.761923      0.120903
O      13.18332      7.60012     15.67628         0.317660      0.822940      0.957552
O       1.96999      7.72521      7.01639        -0.356415     -0.603607     -0.407378
O      13.49648      7.71487      7.05105        -0.253740     -0.773341      0.036594
O       1.82199      7.69429     11.45316        -0.025112     -0.080596      0.132201
O      13.44323      7.60403     11.37714         0.378242      1.755678      0.554935
O       2.02161     11.43626      2.58467         0.309905      0.775159      0.423669
O       1.97942     11.53598     15.63470        -0.342351     -0.048634      0.501300
O      13.42152     11.51488      2.75556        -0.014925      0.245688      0.128830
O      13.53008     11.51136     15.88857        -0.531916     -1.113520      0.220673
O       1.84833     11.55954      7.19057         0.422146     -0.126587     -0.270692
O      13.41669     11.50683      7.03609         0.153797     -0.055744      0.501019
O       2.01192     11.55567     11.35039         0.016491     -0.137264      0.390048
O      13.34530     11.49629     11.48305         0.432982     -0.672904     -0.010349
O       5.66475      3.78535      2.81456         0.561511      0.245421     -0.458642
O       5.85366      3.80975     15.78283         0.026974     -0.271556      0.274128
O       5.69484      0.00593      2.77607         0.145332     -0.108166      0.321371
O       5.67698     15.28308     15.62559        -0.086753      0.410558      0.317993
O       5.74354      3.87781      7.06365        -0.653219      0.283227      0.298456
O       5.77176      0.06506      7.12002        -0.309295     -0.331304      0.141744
O       5.85677      3.89392     11.37873        -0.435765     -0.365743      0.599659
O       5.78945      0.07966     11.44259         0.126670     -1.404652      0.055165
O       5.72735      7.57828      2.84902         0.445804      1.093603     -0.114039
O       5.59120      7.62113     15.85633         0.542104      0.925265     -0.347143
O       5.49044      7.63279      6.90351         0.555015      1.213713      0.198382
O       5.75317      7.67687     11.58445        -0.066809      0.129120     -0.399327
O       5.63301     11.50485      2.66081         0.254097      0.596982      0.147887
O       5.67367     11.52341     15.86671        -0.010814     -0.685086     -0.852672
O       5.81680     11.51869      7.10939         0.159498     -0.168885      0.616856
O       5.75233     11.48513     11.33389        -0.333938      0.181379     -0.155364
O       9.49864      3.79762      2.72332         0.171359      0.361131     -0.176239
O       9.38019      3.77419     15.77561         0.364020      0.269889     -0.114832
O       9.69827     15.34520      2.81582        -0.314027     -1.342902      0.178814
O       9.49139     15.24810     15.79621         0.252165      0.670668      0.295904
O       9.50901      3.89081      7.18864         0.228054      0.400304      0.423921
O       9.55621      0.03450      7.02148         0.453540     -0.234759      0.592683
O       9.67397      3.90673     11.27381        -0.474065     -0.685681      0.393963
O       9.66614     15.31334     11.44733        -0.215137     -0.502399     -0.219071
O       9.66606      7.63250      2.75692        -0.218084      0.191324     -0.145634
O       9.54612      7.76664     15.78783         0.683858     -1.089194      0.525206
O       9.60579      7.66177      7.00565        -0.160063      0.770026      0.225226
O       9.53492      7.67974     11.64920        -0.019958     -0.058479     -0.833551
O       9.47438     11.52597      2.70605         0.612106     -0.203708     -0.004867
O       9.55540     11.54797     15.85866        -0.710289     -0.693991      0.189103
O       9.67859     11.46320      7.06269        -1.171922     -0.079179      0.224250
O       9.55142     11.46222     11.46264         0.085044      0.302348     -0.235294
