  # total energy = -7881.13071240 
CRSYTAL
PRIMVEC
    15.3600000000000000    0.0000000000000000    0.0000000000000000
     0.0000000000000000   15.3600000000000000    0.0000000000000000
     0.0000000000000000    0.0000000000000000    17.440000000000000
PRESSURE
-0.520061 -0.611552 -4.58079 -0.182863 -0.345006 -0.01088
PRIMCOORD
320 1
Pb       3.87118      3.79054      4.29812        -0.273561      0.638331     -0.182962
Pb       3.75815      3.86494     17.42683        -0.488397      0.007596     -0.486847
Pb       3.85047     15.32741      4.30735        -0.183772     -0.364650     -0.270061
Pb       3.86500     15.27833      0.00427        -0.164157      0.015544     -0.959365
Pb       0.00503      3.85493      4.31128        -0.285891     -0.141172     -0.625743
Pb      15.25085      3.75715     17.35224         0.256805      0.148211     -0.562170
Pb      15.34073      0.01696      4.40023         0.074980     -0.305752     -0.952080
Pb       0.15235      0.04279     17.37476        -0.211645     -0.432336     -0.033488
Pb       3.92644      3.83075      8.67400        -0.504528      0.154923      0.023421
Pb       3.82308     15.33138      8.59228         0.015465      0.035253     -0.154361
Pb       0.14438      3.80158      8.73725        -0.193696     -0.244878     -0.368636
Pb       0.03940     15.28622      8.68155        -0.111951      0.149582     -0.483345
Pb       3.88506      3.89730     13.11844        -0.311910     -0.058605     -0.645408
Pb       3.96461      0.10097     13.14321        -0.228560     -0.809034     -0.360336
Pb      15.35407      3.87099     12.98071        -0.305669     -0.071105      0.297344
Pb      15.33109     15.31713     13.09566        -0.179931      0.178009     -0.458671
Pb       3.78310      7.64851      4.36831         0.446028      0.092553     -0.290247
Pb       3.89537      7.71560     17.39882         0.144937     -0.364890     -0.454542
Pb      15.21624      7.62465      4.33428         0.142933      0.041348     -0.850099
Pb       0.11308      7.56699      0.02576        -0.505617      0.108895     -0.557025
Pb       3.73381      7.70848      8.61206         0.294445     -0.313231      0.222988
Pb      15.33002      7.73492      8.64144         0.108795     -0.174968     -0.062887
Pb       3.88656      7.72451     13.05183        -0.241932      0.454076     -0.424160
Pb      15.25949      7.69115     12.98251         0.253848     -0.067166      0.214958
Pb       3.93108     11.45257      4.41601         0.025435     -0.155573     -0.360754
Pb       3.68250     11.56877      0.01654        -0.058715     -0.062380     -0.634400
Pb      15.27346     11.37211      4.42039        -0.307492      0.248788     -0.834319
Pb       0.04453     11.45115      0.04539        -0.178153      0.036572      0.120585
Pb       3.86628     11.44755      8.64108        -0.237317     -0.074875      0.144397
Pb       0.02888     11.62879      8.67092        -0.166997     -0.125893     -0.170392
Pb       3.76291     11.54149     13.07152         0.241337     -0.410926     -0.437736
Pb      15.25341     11.48783     12.95947        -0.103532     -0.210108      0.194355
Pb       7.58782      3.91794      4.24485         0.499496     -0.283697      0.255214
Pb       7.61322      3.78409      0.05233         0.519028      0.002586     -0.526308
Pb       7.57368     15.25964      4.38808         0.199607     -0.024217     -1.108676
Pb       7.82216     15.28764      0.01022        -0.395545      0.106660     -0.097917
Pb       7.66908      3.86441      8.63503         0.391467     -0.104166      0.089665
Pb       7.67918      0.11444      8.73065        -0.076106     -0.248105      0.008707
Pb       7.61187      3.72867     12.98729         0.423729      0.278825     -0.788378
Pb       7.64881     15.23569     13.11739         0.156306     -0.189521     -0.424678
Pb       7.69586      7.76200      4.39879        -0.365121     -0.466217     -0.181877
Pb       7.63844      7.66684     17.39245        -0.016478     -0.160709     -0.673040
Pb       7.74279      7.53319      8.74743        -0.313758      0.452823     -0.547939
Pb       7.78043      7.70251     13.13761        -0.347908     -0.056775     -0.783306
Pb       7.63642     11.48380      4.35418         0.156024      0.370414     -0.690824
Pb       7.67131     11.42307     17.36072        -0.174212      0.136371     -0.218100
Pb       7.68431     11.55250      8.75491        -0.009667     -0.265393     -0.420062
Pb       7.55284     11.47452     13.03220         0.246085      0.336699     -0.200705
Pb      11.52888      3.92425      4.33416        -0.365818     -0.002515     -0.079102
Pb      11.43958      3.81722     17.41537        -0.174876     -0.081887     -0.464670
Pb      11.56491      0.03505      4.43365        -0.131619     -0.324714     -0.691087
Pb      11.56917      0.04230      0.01844        -0.412081     -0.276258     -0.002630
Pb      11.60130      3.67300      8.68572        -0.608952      0.469227     -0.433560
Pb      11.52712      0.09485      8.72483        -0.244293     -0.353550     -0.315189
Pb      11.47735      3.83700     12.93313        -0.154956      0.282096      0.093157
Pb      11.49120     15.34943     13.12751        -0.149255     -0.085441     -0.670361
Pb      11.52059      7.63199      4.43588        -0.141257     -0.087878     -0.672405
Pb      11.47183      7.73959     17.34873        -0.040803     -0.065513     -0.076268
Pb      11.52683      7.66223      8.68915        -0.392043     -0.058241     -0.701387
Pb      11.58348      7.61885     13.14366        -0.066971     -0.070837     -0.726949
Pb      11.44786     11.56780      4.31455         0.002445     -0.274014     -0.586219
Pb      11.54309     11.51721     17.41355         0.165654     -0.162757      0.381488
Pb      11.47946     11.52330      8.67482        -0.109673     -0.145745     -0.392347
Pb      11.49956     11.57765     13.12460         0.072226     -0.279740     -0.750742
Ti       1.83963      1.89862      2.33567        -0.476995     -0.505158      0.237322
Ti       1.89832      1.86079     15.30162        -0.910946      0.832174     -1.110000
Ti       1.90620     13.36281      2.44954        -0.729090      0.342622     -1.164016
Ti       1.81970     13.38628     15.19520         1.041860     -0.205707      1.081319
Ti      13.33078      1.84673      2.26190         0.226444      0.566340      0.727492
Ti      13.25869      1.82699     15.40043         1.546998      1.188420     -0.362724
Ti      13.46519     13.37796      2.30952         0.063059     -0.745029     -0.405931
Ti      13.47466     13.40319     15.44172        -0.034419     -0.675644     -1.406387
Ti       1.84185      1.88327      6.50655         0.335725     -0.456265      0.063757
Ti       1.92483     13.36212      6.54610         0.590106      0.505592     -0.638325
Ti      13.41804      1.87374      6.58669        -0.278441      0.493004      1.630515
Ti      13.33866     13.40999      6.63232         0.473803      0.077853     -0.046128
Ti       1.86535      1.91948     11.06435         0.174199     -0.227378     -0.066369
Ti       1.84786     13.42825     11.06010         0.429770     -0.105131      1.038138
Ti      13.36284      1.90397     10.97597         0.049951      0.035561     -0.402078
Ti      13.34875     13.43527     10.93912         0.250523     -0.286039     -0.575687
Ti       1.86339      5.72061      2.31586         0.379294      0.599509     -0.738066
Ti       1.83719      5.68382     15.38041        -0.275595      0.211345      0.094006
Ti      13.36944      5.64279      2.13562         0.481206      0.672042      0.541423
Ti      13.35152      5.77019     15.35507         0.731687     -0.492739      0.086750
Ti       1.86131      5.64905      6.53469         1.194765      0.558291     -0.395076
Ti      13.46021      5.74181      6.70146        -1.518185     -0.813906      0.237794
Ti       1.87733      5.74645     11.03045         0.295374      0.150437     -1.233753
Ti      13.39346      5.75827     10.86684        -0.284947      0.071328      1.360887
Ti       1.87197      9.60463      2.38242         0.400197     -0.347626     -1.031593
Ti       1.91876      9.53872     15.44794        -0.279853      0.123110     -2.422941
Ti      13.32310      9.47991      2.31956         0.307884      0.529331     -0.463543
Ti      13.48055      9.57805     15.38903         0.689248     -0.263909     -0.489395
Ti       1.78776      9.59396      6.66579         1.866596     -0.411688      0.286245
Ti      13.36439      9.59038      6.59946        -0.416486     -0.045494     -0.418799
Ti       1.80631      9.58365     11.03567         0.963979     -0.378519     -0.065757
Ti      13.31657      9.54566     10.93036        -0.035214      0.334875      0.231814
Ti       5.63911      1.85224      2.25432         1.055601     -0.103984      0.458292
Ti       5.68475      1.99727     15.34831         0.433907     -1.788726      0.799376
Ti       5.66095     13.40748      2.09563         1.274764     -0.244124      1.801163
Ti       5.71573     13.40569     15.43368         0.034015     -0.103980     -1.573756
Ti       5.71749      1.90774      6.56707        -0.010753     -0.470408      0.317855
Ti       5.80312     13.42718      6.67860        -0.674928     -0.489006     -0.572662
Ti       5.68048      1.82251     11.02642         1.157931      0.524708     -0.353586
Ti       5.73800     13.41263     10.95577        -0.297882     -0.248267      0.246305
Ti       5.77152      5.76998      2.33730        -0.179504      1.783917     -0.711124
Ti       5.76433      5.64523     15.38241        -0.034208      2.035800     -0.221155
Ti       5.74354      5.74849      6.63844        -0.165230      0.328056     -0.368261
Ti       5.71719      5.69106     10.98598         0.288172      0.676600     -1.453158
Ti       5.75383      9.55403      2.24455        -0.884585     -0.284311      0.425880
Ti       5.71060      9.60265     15.33029         0.349160      0.461156     -0.136366
Ti       5.78054      9.54165      6.74681        -0.860904      0.253513     -1.193817
Ti       5.69902      9.60093     10.99383        -0.121274     -0.615674     -0.568018
Ti       9.52989      1.89698      2.40648        -0.240862      0.108232     -0.573175
Ti       9.52129      1.79836     15.27305        -0.286032      1.068774     -0.141227
Ti       9.61312     13.47654      2.21098        -0.789351     -0.590730      0.471594
Ti       9.58929     13.34479     15.46192        -0.588491      0.970136     -0.858729
Ti       9.51701      1.83124      6.58545         0.386860      1.203069      1.277538
Ti       9.59192     13.42319      6.61544        -0.342512     -0.239563      0.454258
Ti       9.55432      1.84757     10.99678        -0.412786      0.741521     -0.132931
Ti       9.63145     13.38906     10.96418        -0.574612      0.219243      0.100020
Ti       9.58765      5.76189      2.23418        -0.083935     -0.153338      0.468046
Ti       9.56641      5.58619     15.25404         0.131077      0.649355      0.832299
Ti       9.59167      5.69538      6.61767         0.487155      0.306581      0.167839
Ti       9.52544      5.77615     10.94355        -0.016383     -1.529212     -0.073516
Ti       9.50507      9.57133      2.32734         1.449135      0.949868     -0.732558
Ti       9.63719      9.56708     15.32730        -0.725590     -0.677754     -0.037688
Ti       9.56483      9.55924      6.60068        -0.093691     -0.451913      0.768592
Ti       9.57270      9.60272     10.96630        -0.285068      0.091478     -0.463200
O       1.74367      1.98727      0.56873         0.636603     -0.355354     -0.039365
O       1.85436      1.92670     13.45657         0.152915     -0.131036      1.336767
O       1.79863     13.28775      0.60094         0.392724      0.366187      1.061433
O       1.73697     13.38020     13.40001         0.315643      0.012297      1.178722
O      13.19810      1.90377      0.47436         0.293092     -0.339890      0.305051
O      13.25769      1.77470     13.62580         0.091897     -0.115682      0.622937
O      13.54830     13.35006      0.49608        -0.387249      0.401390      1.106433
O      13.52822     13.36929     13.53455        -0.652134      0.155043      2.047124
O       1.83210      1.86412      4.64348        -0.258212      0.111456      2.124517
O       1.99700     13.42301      4.72534        -0.368433     -0.039725      1.491527
O      13.41385      1.92518      4.83148         0.008708     -0.185725     -0.221443
O      13.25312     13.42233      4.84854         0.324144      0.255635      0.275999
O       1.84760      1.97842      9.25686        -0.051241     -0.315142      1.199495
O       1.65209     13.38388      9.30840         0.598791      0.094412     -0.097651
O      13.29203      1.92507      9.14084         0.205645     -0.341220      1.810075
O      13.40223     13.41821      9.08032         0.022909     -0.275089      1.584609
O       1.84635      5.79081      0.41539         0.506124     -0.431009      2.068934
O       1.62455      5.65708     13.61304         0.795121      0.004559     -0.041505
O      13.42922      5.61703      0.37179        -0.399756      0.407938      0.660987
O      13.37074      5.84372     13.57188         0.180728     -0.080899      0.323403
O       1.89416      5.70859      4.69974        -0.361701     -0.434848      1.612683
O      13.25289      5.73022      4.93795         0.859807     -0.116655     -0.289201
O       1.90665      5.63395      9.20246        -0.136322      0.169173      1.097766
O      13.29766      5.83720      9.12126         0.583954     -0.245020     -0.219806
O       1.93021      9.70705      0.49588        -0.160613     -0.715015      1.669052
O       1.93143      9.60230     13.55791         0.065238     -0.280357      2.074675
O      13.54829      9.50143      0.53587        -0.615531      0.108403      0.513279
O      13.43211      9.56998     13.53146        -0.229506      0.056846      1.830989
O       1.86622      9.76805      4.91352        -0.056707     -0.804798      0.023266
O      13.32482      9.54469      4.75179         0.247533     -0.266879      1.698650
O       1.86889      9.57116      9.22718        -0.459352     -0.158048      0.381420
O      13.31427      9.42327      9.11725         0.271939      0.379501      0.943621
O       5.64097      1.92687      0.49687        -0.035835      0.057381     -0.319919
O       5.69860      1.97321     13.57609        -0.136849     -0.033023      0.216336
O       5.73583     13.50554      0.33757        -0.550603      0.016303      0.339998
O       5.81702     13.41781     13.52883         0.041926     -0.218759      1.559876
O       5.79349      1.87174      4.76257        -0.619190      0.155509      1.173893
O       5.84207     13.49026      4.81221        -0.278932     -0.308202      1.601621
O       5.65994      1.72535      9.25446        -0.021494      0.121207      0.067719
O       5.64573     13.45480      9.12706         0.376299     -0.123056      1.629693
O       5.83937      5.92455      0.46428        -0.305041     -0.523817      1.293088
O       5.69402      5.59223     13.59281         0.302352      0.083192      0.326407
O       5.73658      5.74029      4.80493         0.029324     -0.099559      1.405893
O       5.71435      5.76447      9.08286         0.045531     -0.579289      2.019909
O       5.76660      9.39570      0.45294         0.078039      0.316560      0.752056
O       5.66472      9.69716     13.50868         0.182492     -0.490986      0.835402
O       5.66814      9.56259      4.89732         0.211893      0.304860      1.237253
O       5.64207      9.60212      9.18478         0.245666      0.184566      0.781219
O       9.68739      1.92442      0.59978        -0.343929     -0.029504      0.521114
O       9.63165      1.75507     13.48443        -0.209756      0.048722      0.817767
O       9.59948     13.45038      0.38482        -0.036251      0.202466      0.734632
O       9.46517     13.57975     13.66182         0.481843     -0.711741      0.849851
O       9.40758      1.90021      4.85501         0.382818     -0.488471     -0.289185
O       9.58524     13.54938      4.83321        -0.222676     -0.026506      0.965358
O       9.58352      1.83471      9.18533         0.013175      0.146052      0.578615
O       9.60416     13.26756      9.19692         0.208839     -0.317859     -0.213182
O       9.63893      5.65660      0.43448        -0.281904      0.212465      1.455692
O       9.62341      5.58027     13.49202        -0.461274      0.637450      0.096799
O       9.57172      5.80499      4.84360         0.196950     -0.111546     -0.236360
O       9.29927      5.73164      9.09762         0.978506      0.199312      1.913384
O       9.68738      9.56664      0.51659        -0.686785      0.178040      0.582529
O       9.60218      9.46865     13.53140        -0.003233      0.340029      1.234722
O       9.60623      9.61380      4.82381        -0.230374     -0.427195     -0.137565
O       9.56733      9.55157      9.06042         0.122113      0.445089      2.421767
O       3.74297      1.80062      2.65877         0.368972      0.684849      0.074281
O       3.76640      1.94589     15.74393         1.053121      0.341041      0.149171
O       3.76841     13.45269      2.68143         0.885769      0.122057     -0.309231
O       3.73911     13.40861     15.78002        -0.643894     -0.328882     -0.226833
O      15.23205      1.96767      2.70047        -0.160798     -0.288238     -0.135732
O       0.01169      1.84827     15.74263        -0.868711     -0.068767      0.047831
O      15.32748     13.26863      2.81165        -0.660549      0.392006      0.064490
O       0.02966     13.56133     15.73612         0.017158     -0.354688     -0.207578
O       3.75730      1.81817      6.94227         0.450841      0.232402     -0.313780
O       3.82757     13.40810      7.02691        -0.758635      0.310461     -0.168618
O      15.27395      1.91569      7.08320         0.880513     -0.404482     -0.624626
O       0.06589     13.38468      7.03861        -0.845877     -0.159489     -0.319103
O       3.84484      1.92459     11.40351        -1.308521     -0.420377      0.227418
O       3.88686     13.41058     11.48939        -0.839231      0.099848     -0.749909
O      15.26603      1.84108     11.45274        -0.191760      0.167066     -0.473128
O      15.20906     13.40533     11.39963         0.463076     -0.082063     -0.364321
O       3.85774      5.87345      2.76776        -0.848514     -0.210815     -0.695291
O       3.87511      5.75925     15.67115        -0.395069     -0.584585      0.395648
O      15.33819      5.68461      2.60815        -0.701134     -0.262185      0.162421
O      15.28031      5.73132     15.81064         0.441562     -0.161397     -0.010435
O       3.79992      5.61033      6.88628        -0.213810     -0.240443      0.169785
O       0.00218      5.58733      6.99502        -0.062839      0.284627     -0.057608
O       3.80715      5.52158     11.39667         0.070874      0.901621      0.141161
O      15.33541      5.83191     11.29638        -0.719508     -0.230737     -0.037397
O       3.83602      9.46458      2.69590        -0.875113     -0.029053     -0.086489
O       3.85723      9.59835     15.78919        -0.842439     -0.041047      0.107377
O      15.24248      9.55461      2.81177         1.221248      0.320852     -0.018380
O       0.04211      9.57386     15.78224        -0.562782     -0.258370     -0.085562
O       3.78432      9.52661      7.19389        -0.574823      0.141855     -0.617564
O      15.29896      9.59831      7.03626        -0.156237     -0.272577     -0.055957
O       3.80340      9.61649     11.45946         0.391333     -0.144529     -0.193890
O      15.27333      9.59586     11.40019        -0.168049     -0.289510     -0.515395
O       7.52426      1.95407      2.70970        -0.033185      0.138557     -0.504912
O       7.61839      1.93053     15.78109        -0.137469     -0.308799     -0.165753
O       7.67178     13.43536      2.60938        -1.210858     -0.257301     -0.193588
O       7.58896     13.38427     15.88284         1.013034      0.279300     -0.184737
O       7.65053      1.91372      7.06963        -0.621375     -0.684836     -0.271692
O       7.63213     13.34489      7.16656         0.455143      0.157488     -0.654832
O       7.66174      1.81902     11.41563        -0.185544      0.221750     -0.058850
O       7.82619     13.29660     11.31061        -2.527236      0.529662      0.257136
O       7.65527      5.79064      2.78469         0.470860     -0.220325     -0.739576
O       7.71258      5.64024     15.80883        -0.306605      0.575956     -0.318042
O       7.69023      5.70983      7.00377        -1.536464     -0.089490     -0.134227
O       7.56975      5.64464     11.44204         0.500195      0.250114     -0.185963
O       7.60190      9.63254      2.75496         0.255138      0.564499     -0.197027
O       7.62730      9.66842     15.72050         1.041153     -0.152897     -0.118798
O       7.62077      9.56291      6.99819        -0.001497      0.090700     -0.031394
O       7.69463      9.62448     11.35805        -0.478769     -0.458956      0.116452
O      11.40328      1.93963      2.87391         0.811041     -0.618958     -0.418636
O      11.40450      1.89902     15.76537         0.583233     -0.643158      0.016340
O      11.45325     13.44348      2.67547         0.185253      0.417720     -0.209880
O      11.49495     13.27481     15.71470         0.505427      0.763929     -0.145528
O      11.49666      1.77631      7.06369        -0.600834      0.206366     -0.580423
O      11.45873     13.37761      7.07004        -0.317808     -0.049557     -0.287967
O      11.45916      2.05913     11.43967         0.510421     -1.083644     -0.528058
O      11.46426     13.28317     11.42514         0.730788      0.396301      0.223448
O      11.49034      5.74431      2.71629        -0.604616      0.069235     -0.519897
O      11.46304      5.84206     15.69976         0.086285     -0.461212      0.030030
O      11.50861      5.75483      6.97694        -0.299979     -0.032309      0.419396
O      11.51894      5.78012     11.33465        -0.968382      0.057187     -0.276025
O      11.46539      9.51723      2.66814        -0.353120     -0.034338      0.125598
O      11.58691      9.70536     15.86808        -0.567926     -0.613378     -0.779612
O      11.52276      9.51915      7.04240        -0.283602      0.083754     -0.337827
O      11.44934      9.45509     11.43502        -0.269914      0.270752     -0.479467
O       1.88652      3.81340      2.75194         0.418706      0.390643     -0.359272
O       1.89769      3.78155     15.81128         0.050928      0.275346      0.004042
O       1.78782     15.30502      2.71320        -0.190416      0.384106     -0.119097
O       1.95043      0.01738     15.69237        -0.028419     -0.997129      0.048960
O      13.29496      3.79367      2.57699         0.144290      0.072917      0.289382
O      13.43527      3.79862     15.73918        -0.569320     -0.587913     -0.221310
O      13.34812     15.31805      2.71938         0.208281      0.287676     -0.180984
O      13.40575     15.25681     15.90843        -0.452342      0.902649     -0.422427
O       1.88803      3.69572      7.04387        -0.155770      0.641741     -0.501552
O       1.82789     15.32701      7.02396         0.022606      0.155798     -0.314069
O      13.33777      3.72934      7.15580         0.230958      0.693813     -0.763163
O      13.38040     15.26237      7.02062         0.337144      0.803338     -0.241761
O       1.78185      3.85204     11.46275         0.022814     -0.696707     -0.284877
O       1.82491     15.29865     11.48642         0.238611      0.315157     -0.621296
O      13.32721      3.85942     11.39063         0.851617     -0.087217     -0.576100
O      13.22937     15.34481     11.34292         0.154456     -0.139222     -0.173557
O       1.74956      7.63829      2.83336         0.343094      0.395208     -0.596063
O       1.88531      7.56990     15.71340         0.250451      1.185781      0.326847
O      13.41182      7.55455      2.64611         0.062614     -0.148090      0.229929
O      13.47672      7.67573     15.81315        -0.438778      0.437386     -0.326826
O       1.91358      7.55476      6.97726        -0.619817      0.413823     -0.132765
O      13.38253      7.62490      7.04916         0.787142      0.481316     -0.277067
O       1.95415      7.68555     11.46148        -0.032917     -0.742418     -0.164312
O      13.34897      7.68661     11.44461         0.437858     -0.470576     -0.464210
O       1.96677     11.44235      2.82066        -0.294447     -0.374713     -0.256846
O       1.82360     11.47054     15.84427         0.364711      0.942853     -0.775529
O      13.28206     11.45245      2.70799         0.322481      0.667511     -0.065959
O      13.53221     11.52225     15.90305        -0.009182     -0.152417     -0.696565
O       1.97401     11.47605      7.04177        -0.608913      0.378623      0.030528
O      13.38620     11.50209      6.89103         0.134994     -0.692462      0.413656
O       1.89725     11.42213     11.48818        -0.311914      1.432596     -0.483101
O      13.28510     11.45640     11.33245         0.256529      0.086756     -0.171065
O       5.61438      3.96393      2.70549         0.195583     -1.824284     -0.509029
O       5.82821      3.84071     15.85491        -0.794171     -0.778112      0.003255
O       5.60539     15.30417      2.55302         0.380851      0.244747      0.049404
O       5.55232     15.26833     15.58853         0.400227      1.939651      0.526487
O       5.75777      3.73617      7.21654        -0.267561      0.062525     -1.353528
O       5.66583     15.30431      7.05197         0.584121      0.845110     -0.370147
O       5.75215      3.74026     11.36724        -0.002882      0.350759      0.061285
O       5.79953     15.29835     11.51700        -0.236428     -0.314358     -0.340468
O       5.86490      7.72986      2.82886        -0.505083     -0.534843     -0.493806
O       5.74586      7.72985     15.68358         0.323769     -0.851301     -0.059478
O       5.62431      7.61032      7.06611         0.427287     -0.166019     -0.380701
O       5.77128      7.65288     11.29288        -0.457382     -0.312090      0.583398
O       5.52882     11.52549      2.60149         0.825466     -0.145847     -0.278512
O       5.71604     11.54321     15.87956        -0.185958     -0.914948     -0.252471
O       5.57754     11.47868      7.06536         0.835245      0.252507     -0.300590
O       5.77407     11.50282     11.44473         0.001226      0.433215     -0.603370
O       9.51209      3.83038      2.73972         0.059862      0.826228     -0.264922
O       9.60124      3.75456     15.67779         0.039926     -0.143542      0.120469
O       9.35895      0.02090      2.63921         0.845796     -0.503610      0.006872
O       9.50286     15.35671     15.79819         0.456062     -0.512333      0.088581
O       9.55782      3.81491      6.98013         0.218078     -1.071124      0.012268
O       9.52481     15.28799      7.22976         0.026380      0.006734     -1.208390
O       9.52362      3.80973     11.39807         0.036171      0.496726     -0.203128
O       9.59046     15.33884     11.30132         0.548134     -0.794283      0.145888
O       9.49136      7.75150      2.61636        -0.009895     -1.803967      0.158049
O       9.58395      7.67783     15.65926        -0.041242      0.440174      0.038622
O       9.48097      7.63749      7.02649         0.409005      0.302079     -0.126949
O       9.43456      7.56247     11.46320         0.250862      0.882264     -0.503453
O       9.54098     11.54997      2.77686         0.087117     -0.015307     -0.383981
O       9.60777     11.50584     15.86090        -0.394627     -0.741384     -0.528882
O       9.51854     11.41439      6.87312         0.251726      1.557063      0.554989
O       9.53960     11.43607     11.57586         0.957821     -0.301307     -0.804259
