  # total energy = -7877.71919974 
CRSYTAL
PRIMVEC
    15.6000000000000000    0.0000000000000000    0.0000000000000000
     0.0000000000000000   15.6000000000000000    0.0000000000000000
     0.0000000000000000    0.0000000000000000    17.640000000000000
PRESSURE
-4.77124 -4.44868 -0.600264 0.112216 -0.430236 0.013609
PRIMCOORD
320 1
Pb       3.93245      3.90432      4.29174         0.013544      0.017150     -0.194524
Pb       3.83560      3.72488     17.57493         0.261898      0.714460      0.046639
Pb       3.97936      0.06221      4.42342        -0.295671     -0.177409     -0.310893
Pb       3.99138     15.57957     17.52885        -0.515872     -0.085076     -0.045301
Pb      15.57555      3.84479      4.31089        -0.079354      0.594592     -0.055445
Pb      15.54358      3.76046     17.54494         0.099334      0.446052      0.012837
Pb       0.00818      0.03031      4.33460        -0.087434     -0.781915      0.057809
Pb       0.12203     15.53865      0.01186         0.054640     -0.263113     -0.776069
Pb       3.90189      3.83505      8.76086         0.546487     -0.247571     -0.570645
Pb       3.86283      0.00503      8.77075         0.068770      0.097627      0.037595
Pb       0.05202      3.80001      8.74459        -0.372938      0.271768      0.015625
Pb       0.05266      0.04824      8.90912        -0.433556     -0.472977     -0.656159
Pb       3.74728      4.05074     13.12160         0.308743     -0.509166     -0.508961
Pb       3.91784      0.07569     13.20830        -0.431764     -0.244979     -0.384613
Pb      15.56258      3.83122     13.25877        -0.237322      0.341205     -1.059478
Pb      15.58320     15.58986     13.18951         0.084121      0.162674     -0.264993
Pb       3.85330      7.80955      4.19814        -0.229451     -0.557035     -0.091837
Pb       3.80205      7.80756     17.58673        -0.166921     -0.441926     -0.715232
Pb      15.51821      7.67379      4.42546         0.432248     -0.157126     -0.373651
Pb      15.46023      7.77555      0.00095         0.350435      0.003316     -0.446181
Pb       3.81020      7.76331      8.77356         0.279473     -0.188024     -0.622887
Pb       0.05912      7.82794      8.64724         0.249575     -0.178447      0.040677
Pb       3.86914      7.90267     13.18221        -0.195311     -0.070981      0.441657
Pb      15.45592      7.81458     13.18755        -0.059324     -0.142231     -0.191874
Pb       3.90856     11.59379      4.31449        -0.695528      0.747339     -0.192844
Pb       3.88523     11.65535     17.54385         0.131478     -0.441869      0.123656
Pb       0.03391     11.62720      4.43437        -0.130971      0.518711     -0.496811
Pb       0.01500     11.56017      0.08888        -0.368609      0.456698     -0.524390
Pb       3.90284     11.72303      8.68881        -0.191056      0.210551      0.469709
Pb       0.03737     11.52900      8.78563        -0.222680      0.467345     -0.894577
Pb       3.94569     11.53219     13.22650        -0.329929      0.782360     -0.249422
Pb       0.10655     11.62118     13.26118         0.269449      0.119973     -0.449165
Pb       7.79591      3.98061      4.31100        -0.201653     -0.146098     -0.717287
Pb       7.86524      3.82257     17.55923        -0.614050     -0.154459     -0.404253
Pb       7.96399      0.00416      4.37811        -0.464692     -0.288352     -0.542448
Pb       7.83387     15.43713     17.61630         0.046936      0.326606     -0.632497
Pb       7.99495      3.89853      8.70893        -0.966124     -0.019343      0.330868
Pb       7.73900     15.57572      8.69191         0.207399      0.233584      0.196703
Pb       7.61057      3.80944     13.13382         0.511063      0.287032     -0.874338
Pb       7.74329     15.52719     13.16102        -0.079807     -0.076945     -0.108003
Pb       7.67047      7.80348      4.34576         0.421287     -0.285076     -0.685449
Pb       7.79645      7.75760     17.50827         0.157054      0.402378     -0.623674
Pb       7.87608      7.82225      8.76646        -0.550122     -0.343724      0.269860
Pb       7.86640      7.67770     13.20446         0.451016     -0.268505     -0.280379
Pb       7.70946     11.63573      4.33296         0.606242      0.432131     -0.822090
Pb       7.77718     11.71038     17.58443         0.101977     -0.348227     -0.762295
Pb       7.76240     11.61793      8.74707        -0.224208      0.357162      0.454207
Pb       7.76165     11.53129     13.21900         0.176280      0.724990     -0.136726
Pb      11.63094      3.89301      4.31198         0.307819     -0.127567     -0.143281
Pb      11.62117      3.91777     17.52601         0.332196     -0.146043     -0.444067
Pb      11.79136      0.05352      4.36596        -0.219370      0.060708     -0.788719
Pb      11.83293      0.04820     17.53383        -0.642677     -0.259114      0.097878
Pb      11.72768      3.89484      8.78042        -0.198108      0.038533     -0.415918
Pb      11.56278     15.55629      8.82192         0.108643      0.422781     -0.466520
Pb      11.61485      3.84446     13.21914        -0.252206      0.366353     -0.818796
Pb      11.73187      0.06015     13.23928        -0.172723     -0.710422     -0.458524
Pb      11.64461      7.86028      4.39646        -0.278138     -0.334474     -0.555693
Pb      11.83120      7.87786     17.63487        -0.519031      0.031925     -0.715441
Pb      11.81293      7.77797      8.78735        -0.648080     -0.053209      0.026576
Pb      11.66500      7.86924     13.21122        -0.031091      0.135834     -0.773447
Pb      11.71967     11.73553      4.55999         0.263870      0.132091     -1.170595
Pb      11.58388     11.77159      0.12343         0.327151      0.330690     -0.875202
Pb      11.56372     11.75883      8.84089         0.327177     -0.344997     -0.410410
Pb      11.80197     11.68038     13.31246        -0.615061      0.178783     -0.803195
Ti       1.94569      1.88243      2.42840         0.342649      0.645969      0.235411
Ti       1.91163      1.89186     15.51789        -0.007237      0.011859     -0.085763
Ti       1.84693     13.67072      2.22208         0.117877     -1.211396      2.274452
Ti       1.95413     13.52491     15.60481        -0.251810      0.348545      0.610757
Ti      13.70148      1.92549      2.25316        -1.536248      0.017830      0.446528
Ti      13.59826      1.92685     15.57414        -0.018017      0.436616      1.978647
Ti      13.58297     13.59297      2.33146        -0.254878     -0.221958      0.306922
Ti      13.72093     13.76035     15.53020        -0.703388     -2.091441      1.600860
Ti       1.82173      1.90631      6.77155         1.268192     -0.449856     -0.105445
Ti       1.84120     13.71441      6.79365        -0.599689     -0.498559      0.665244
Ti      13.50334      1.96944      6.71502         0.055988     -0.409538      0.126226
Ti      13.55948     13.73217      6.86625         1.164312     -0.877258     -0.236400
Ti       1.87704      1.97669     11.16709         0.238310     -0.650319      2.197235
Ti       1.85024     13.63201     11.21828         1.543687      0.017806      1.155952
Ti      13.61424      1.97634     11.23601         0.251757      0.443867      0.708221
Ti      13.53896     13.67294     11.18578        -0.357792      0.471183      2.886473
Ti       2.01188      5.76074      2.24354        -0.591813      0.491330      0.621031
Ti       1.88327      5.79958     15.57771         0.909992      0.443766      0.518430
Ti      13.61038      5.82206      2.33130         0.200039     -0.647221      0.008712
Ti      13.65975      5.86779     15.64867        -0.443804      0.454285      0.957884
Ti       1.93820      5.73603      6.72411        -0.328768      1.063992     -1.914676
Ti      13.66632      5.78087      6.84606        -0.281647     -0.019598      0.173086
Ti       1.92896      5.85897     11.14948        -1.439431     -0.429376      1.405556
Ti      13.60679      5.93630     11.10697         0.428638     -0.458033      2.165186
Ti       1.88186      9.70332      2.39792        -0.460722     -0.073135      0.591256
Ti       1.81093      9.71346     15.66852         0.626004     -0.345925     -1.652589
Ti      13.58938      9.68807      2.48880         0.076055      1.695993     -0.218202
Ti      13.53593      9.92691     15.71339         0.502062     -0.283282      0.982338
Ti       2.02955      9.75023      6.63628        -0.964966     -0.035936      0.486858
Ti      13.57948      9.65256      6.83975         0.228402      1.701480     -0.336708
Ti       1.91658      9.65555     11.19950        -0.167879      1.377072      2.239523
Ti      13.68101      9.87015     11.08661        -2.067630     -1.762872      1.858657
Ti       5.84287      1.85058      2.38405         0.053402      1.549831     -0.237883
Ti       5.80360      1.95067     15.59503         0.077725      0.019196      0.158667
Ti       5.72114     13.59745      2.28760         0.668170      0.306515      0.798311
Ti       5.83689     13.59215     15.69982         0.163008     -0.264514     -1.554853
Ti       5.80777      1.96024      6.73403        -0.399473      0.577702      0.702807
Ti       5.77086     13.64550      6.78383        -0.328683      0.149153      0.623017
Ti       5.78283      1.94424     11.13365         0.139458      0.514919      0.461026
Ti       5.67934     13.63925     11.27864         0.449039     -0.644146      0.450879
Ti       5.85775      5.80166      2.20283         0.011931     -0.929384      0.514661
Ti       5.78788      5.84916     15.61503        -0.503902     -0.496647      1.985088
Ti       5.83373      5.87351      6.68984         0.010267     -0.715884      0.674496
Ti       5.80336      5.99305     11.02365         1.101052     -3.154252      0.036904
Ti       5.78877      9.75933      2.28428         0.349510     -0.574707     -0.457379
Ti       5.78737      9.66474     15.55926         0.144808      0.989202      0.669643
Ti       5.78623      9.72982      6.74444         0.547346     -0.782405      1.457141
Ti       5.86632      9.72031     11.22230         0.210426      1.214669      0.377163
Ti       9.72161      1.95449      2.36845         0.209471     -0.296776      0.411560
Ti       9.67081      1.91872     15.56015        -0.188462     -0.139410      0.415933
Ti       9.66999     13.63470      2.32283        -0.269153     -0.636175      2.965673
Ti       9.79751     13.69850     15.57126        -0.103263     -1.311913     -0.316416
Ti       9.67386      1.97824      6.61177         0.591803     -0.308305      1.481995
Ti       9.69613     13.63889      6.71318        -0.233337      0.657752     -0.206925
Ti       9.76281      1.80627     11.14467        -0.952780      1.179164      1.139056
Ti       9.60222     13.62978     11.14113         0.947340     -0.574330      2.358924
Ti       9.78855      5.81237      2.20577        -0.154870      0.584792      2.748298
Ti       9.72015      5.81737     15.53011         0.430001      0.791191     -0.184733
Ti       9.69899      5.83678      6.71892         0.147847     -0.251691      0.734986
Ti       9.73887      5.82554     11.12470        -0.385760     -0.442038      1.581960
Ti       9.70841      9.66586      2.27860         0.037045      1.002092      0.943839
Ti       9.72358      9.75670     15.58729        -0.541048     -0.141242      0.277352
Ti       9.66675      9.71472      6.81479         0.413763      0.029297     -0.263262
Ti       9.69435      9.77963     11.23610         1.329901     -0.134516      0.530228
O       2.01655      2.02343      0.73392        -0.388444     -0.583218     -1.594464
O       1.82847      1.90931     13.75079         0.312569      0.366682      1.058966
O       1.89469     13.60152      0.51049        -0.273839      0.096501     -0.626191
O       1.92015     13.38949     13.86243         0.029039      0.179398     -0.109721
O      13.62972      1.96984      0.47633        -0.062742     -0.284650      0.798066
O      13.60852      1.87944     13.88510         0.040087      0.363824     -1.386413
O      13.52489     13.46952      0.58572         0.047012      0.471291     -0.152814
O      13.64795     13.76757     13.82312        -0.005784     -0.404396     -1.584142
O       1.91373      1.65770      5.05350        -0.084641      0.362243     -1.345634
O       1.69995     13.79665      5.08555         0.081654      0.024050     -0.652287
O      13.45502      2.02724      4.96347         0.451619     -0.649728     -0.201150
O      13.53667     13.51768      5.11352        -0.133507      0.623358     -0.044900
O       1.78584      2.04215      9.46425        -0.092799     -0.112258     -2.837015
O       1.93300     13.68141      9.50990        -0.263724     -0.027714     -1.385028
O      13.58152      1.96087      9.49851         0.030879      0.074366     -0.948978
O      13.42644     13.85408      9.51881         0.159779     -0.235347     -1.732723
O       2.04801      5.83077      0.48687        -0.345927     -0.100117      0.886024
O       1.86526      5.70687     13.80559         0.213026      0.091711     -0.148308
O      13.74515      5.67795      0.56945        -0.674657      0.616444      0.575510
O      13.73605      6.03092     13.96555         0.173290     -0.355323     -1.449380
O       1.87718      5.80909      4.90760         0.089184     -0.030766      1.236432
O      13.69341      5.87373      5.13706        -0.042766      0.348577     -1.538893
O       1.80662      5.94565      9.44811         0.376788      0.036046     -1.352520
O      13.60782      5.76452      9.41125        -0.072752      0.132907     -1.913457
O       1.82188      9.60319      0.66420        -0.064569      0.562586     -1.225516
O       1.83324      9.76766     13.85178        -0.333091      0.529094      0.186469
O      13.63926      9.76584      0.72832        -0.094231      0.179661     -0.606639
O      13.58176      9.85073     14.01837        -0.222581      0.042582     -1.970580
O       1.98984      9.82620      4.87539         0.217521     -0.372898      0.382740
O      13.56354      9.64669      5.06867         0.086859      0.079472     -0.061661
O       1.83443      9.65651      9.51251         0.295499     -0.261557     -1.625958
O      13.69361      9.77982      9.39091        -0.168614     -0.249115     -2.682183
O       5.65963      2.01754      0.65892         0.498984     -0.564922     -1.208909
O       5.80441      1.91527     13.87450        -0.273819     -0.086887     -1.215890
O       5.80758     13.41756      0.54014         0.183090      0.509980     -0.137759
O       5.81602     13.68540     13.93751        -0.180306     -0.208312     -0.323758
O       5.75895      1.92319      4.98500        -0.022919     -0.113698     -0.592565
O       5.70364     13.56599      5.07909         0.304491      0.346719     -0.274180
O       5.66164      1.86706      9.40428         0.189888      0.091251     -0.485446
O       5.74642     13.63862      9.55566        -0.045148      0.078822     -1.643877
O       5.69741      5.66027      0.49800         0.476423      0.660201     -0.570553
O       5.77017      5.85354     13.93088        -0.112268      0.073074     -1.956511
O       5.82338      5.81348      4.91758         0.024907      0.176100     -0.182948
O       5.90036      6.03568      9.28210        -0.357739     -0.357462     -0.145263
O       5.87306      9.80504      0.54245        -0.133559     -0.000417      0.149635
O       5.89284      9.70396     13.81608        -0.173673     -0.134074     -1.251572
O       5.63831      9.72474      5.04160         0.351264     -0.065031     -1.631221
O       5.80111      9.88384      9.53866         0.080199     -0.505356     -1.788883
O       9.70624      1.92897      0.64113        -0.282302      0.180273     -1.255171
O       9.67815      1.95122     13.85072         0.155122     -0.259605     -1.087121
O       9.62437     13.59553      0.64038        -0.114469      0.243955     -3.063925
O       9.66364     13.63663     13.85803         0.252264      0.273771     -0.664310
O       9.72138      2.09811      4.89059        -0.190924     -0.184094     -1.102493
O       9.57246     13.70577      4.93696         0.308361     -0.575365      0.868316
O       9.74477      1.75086      9.41882         0.245965      0.554275     -0.923810
O       9.60845     13.78357      9.44424         0.519317     -0.159430     -2.431227
O       9.86901      5.85418      0.52009        -0.089810     -0.115381     -2.035350
O       9.65625      5.78480     13.78962         0.093390      0.166315     -0.231562
O       9.70387      5.82341      4.98387        -0.038943      0.056710     -0.017211
O       9.59277      5.72373      9.38674         0.344467      0.390848     -0.705872
O       9.72221      9.69953      0.54726        -0.127833     -0.151951     -0.771868
O       9.68887      9.77092     13.84325         0.276526      0.117872     -1.190029
O       9.59023      9.85596      5.08332         0.099017     -0.485586     -0.027134
O       9.81533      9.65699      9.52556        -0.347504      0.092001     -2.498700
O       3.83984      2.00258      2.75500         0.202701     -0.873887      0.883260
O       3.80957      1.84147     16.01079        -0.069470      0.197270     -0.197192
O       3.82622     13.63288      2.72230         0.087523      0.308115     -0.067714
O       3.86825     13.41305     16.15696        -0.171026      1.334578     -0.678659
O      15.54302      2.01570      2.70727        -0.202631     -0.603461      0.185277
O      15.54054      1.80121     16.12228         0.818704      0.246974     -0.652124
O      15.44730     13.60860      2.69023         0.830879      0.280463      0.006145
O      15.56858     13.66687     15.97955         0.642906      0.037135      0.328533
O       3.87872      1.89959      7.11733        -0.624068      0.278190      0.559151
O       3.76904     13.69738      7.13992         1.230964     -0.302481      0.280342
O      15.56488      1.95004      7.03095        -0.690236      0.201358      0.711081
O      15.49316     13.72647      7.29627         0.382705     -0.404150      0.293677
O       3.79781      2.01908     11.51074         0.665954      0.212049      0.530524
O       3.83930     13.56921     11.66341        -0.335896      0.239698      0.332662
O      15.51588      1.94014     11.69223         0.195565     -0.031203     -0.092552
O       0.05827     13.82890     11.66050        -1.754707     -0.972926     -0.383922
O       3.83796      5.68374      2.71566         0.528096      0.694554     -0.113017
O       3.81128      5.82591     16.08022         0.134996      0.280978     -0.524442
O      15.49602      5.93186      2.79988         0.129001     -0.445685     -0.115362
O       0.05572      5.82397     16.14986        -0.679751      0.012926     -0.367981
O       3.78423      5.94044      7.16772         0.699627     -0.360106      0.197969
O       0.00217      5.75112      7.16090         0.080565      0.356868      0.433011
O       3.87028      5.73862     11.37149        -0.187337      0.389175      0.518658
O      15.51534      5.89990     11.48561         0.552798      0.436497      0.599206
O       3.77302      9.77912      2.76194         1.413640      0.058669     -0.036003
O       3.83570      9.71099     15.73400         0.004630      0.134288      1.070079
O       0.01086      9.70126      2.85019        -0.990337      0.203430      0.305165
O      15.50024      9.65489     16.00854         0.331586      1.002724      0.769735
O       3.97103      9.70356      7.30949        -1.212474     -0.215368     -0.387791
O       0.09659      9.79036      7.11310        -0.709376     -0.250644      0.255778
O       3.90417      9.77299     11.59276        -0.670881     -0.842408      0.344568
O      15.46075      9.70577     11.50819         2.193760      0.023884      0.666137
O       7.76430      2.02291      2.80017         0.203286     -0.119160      0.045398
O       7.67919      1.93283     15.91032         0.870032     -0.094336      0.888183
O       7.63437     13.64036      2.82565        -0.068610     -0.093449     -0.057473
O       7.78257     13.67098     15.92596        -0.245877     -0.281680      1.196791
O       7.77400      1.98070      7.07225        -0.346062     -0.009904      0.088298
O       7.82791     13.64932      7.28274        -1.118414     -0.017953     -0.617205
O       7.74065      1.85207     11.49165         0.055845     -0.105345      0.372549
O       7.82061     13.71199     11.61856        -1.533561      0.067856      0.297191
O       7.87112      5.81838      2.52141        -1.056553      0.306807      0.461420
O       7.79959      5.95266     15.94281        -0.504589     -0.546263      0.515069
O       7.73138      5.65328      7.05777         0.501984      0.253548      0.044950
O       7.80868      5.86475     11.60450        -0.549014      0.183718     -0.013117
O       7.69086      9.55440      2.79487        -0.083389      0.944435     -0.014536
O       7.76624      9.71060     15.88574        -0.200527     -0.322989      0.823157
O       7.76409      9.71615      7.22954        -0.239904      0.454753      0.049077
O       7.79334      9.88154     11.51171        -0.943376     -1.029190      0.606779
O      11.66326      1.90604      2.73260         0.247454     -0.044489      0.114001
O      11.60355      2.03923     16.01847         0.805602     -0.845013     -0.098993
O      11.49952     13.57060      2.68685         1.032629      0.228187      0.574629
O      11.71147     13.55988     15.93178        -0.696036      0.651622      0.486879
O      11.63589      1.94863      6.99474        -0.158257     -0.073591      0.747972
O      11.65953     13.65252      7.17074        -1.198858      0.063778      0.381215
O      11.69581      1.98230     11.70830        -0.495975     -0.215175     -0.160437
O      11.59025     13.71082     11.70388         1.347245     -0.349136     -0.340834
O      11.67656      5.91462      2.84447         0.626063     -0.189307     -0.386014
O      11.70667      5.81997     15.83468        -0.009111     -0.315393      0.788308
O      11.70399      5.91264      7.22669        -0.659724     -0.070769      0.082085
O      11.71627      5.86818     11.49412        -0.697918     -0.091020      0.322374
O      11.62698      9.70724      2.79617         0.064868      0.559514      0.296994
O      11.63565      9.70176     16.10469         0.374277      0.497057      0.230148
O      11.63181      9.60514      7.07319        -0.034253      0.017704      0.620782
O      11.61135      9.80176     11.57575         0.963573      0.261410      0.837252
O       1.89233      3.83018      2.81124        -0.357384      0.690154      0.058385
O       1.93636      3.84615     15.92389        -0.405754     -0.954297     -0.038407
O       1.74499     15.52005      2.72076         0.385782      0.837730     -0.022630
O       1.99196     15.45589     16.01924        -0.192462      1.048819      0.000927
O      13.54662      3.85446      2.79014         0.373993      0.482159     -0.340670
O      13.65799      3.86876     16.01796         0.240979     -0.109038     -0.296107
O      13.53556     15.53637      2.71398         0.147146      1.040285      0.035167
O      13.55094     15.56360     15.93753        -0.091976      1.525264      0.630196
O       1.89569      3.85879      7.04621         0.320498      0.066889      0.610768
O       1.89162      0.01625      7.24110        -0.229676      0.008303      0.627562
O      13.50835      3.88348      7.04265         0.386883     -0.265340      0.998645
O      13.59544      0.03595      7.26998        -0.222039      0.107580     -0.374045
O       1.81007      3.87096     11.51030         0.129705      1.574045      0.651111
O       1.90150      0.10997     11.58146         0.301950     -1.106970      0.164579
O      13.69578      3.89707     11.64644        -0.503630      0.393212      0.262607
O      13.61256      0.05657     11.77007        -0.131845     -0.687487     -0.533711
O       2.00650      7.77432      2.63977        -0.070640     -0.816758      0.579894
O       1.88029      7.84563     15.82229         0.170999     -1.118494      0.869302
O      13.54831      7.88009      2.67501         0.226567     -1.991135      0.645008
O      13.64468      7.87780     16.04585        -0.213394     -1.116716      0.828030
O       1.91381      7.82319      6.99921         0.024565      0.131014      0.576481
O      13.69437      7.77414      7.27343         0.011101      0.260653      0.037864
O       1.93618      7.80035     11.84005         0.102494     -0.303028     -1.114457
O      13.49782      7.92236     11.60080         0.407764     -1.079449     -0.011818
O       1.79219     11.78440      2.81613         0.390247     -0.417180     -0.317263
O       1.90219     11.64548     16.15447        -0.617539     -0.361835     -0.079233
O      13.50549     11.76673      2.87854         0.107186     -1.354010      0.436577
O      13.59752     11.82278     15.96835         0.224238     -1.324936      0.416670
O       1.92539     11.67476      7.08799         0.265501     -0.004631      0.364243
O      13.54278     11.64905      7.27519         0.036712     -0.201259      0.243980
O       1.92372     11.66847     11.56138        -0.659159     -0.667371      0.238202
O      13.65048     11.68034     11.45326        -0.160987      2.196244      0.524914
O       5.83181      3.87185      2.55708         0.076524      0.840529      1.372863
O       5.78114      3.87575     15.88891         0.082710     -0.121868      0.498963
O       5.86785      0.02150      2.63976        -0.626669     -1.343831      0.392754
O       5.77233     15.51868     15.99391        -0.182642      0.582183      0.727646
O       5.71220      3.89620      7.14639        -0.139100     -0.007365      0.114654
O       5.71382      0.02537      7.24313         0.754530     -1.065561     -0.486290
O       5.94939      3.88894     11.41607        -0.654056     -0.068468      0.467943
O       5.61269     15.56264     11.66797         0.896942      0.564983     -0.032777
O       5.76789      7.78937      2.50451        -0.494373     -0.433536      0.776193
O       5.70817      7.80603     16.00198         0.495115     -0.503596      0.464157
O       5.95744      7.73858      7.09011        -0.425421      0.638873      0.006638
O       5.82095      7.72074     11.43040        -0.160683      2.120131      1.024972
O       5.73858     11.67179      2.81501         0.386870     -0.282495     -0.188009
O       5.74503     11.63284     15.98667         0.699584     -0.242847      0.228079
O       5.77218     11.62872      7.18049         0.338757      1.152762      0.028934
O       5.82618     11.66827     11.55954        -0.024597      0.287800      0.995802
O       9.79220      3.91913      2.66374        -0.093639      0.160266      0.150730
O       9.70963      3.82720     15.84117        -0.377724      0.856947      1.103095
O       9.62272      0.00024      2.73053        -0.002122      0.124496      0.295614
O       9.67459     15.56803     16.00935         0.292646      0.688481      0.405983
O       9.76966      3.86384      7.19329         0.179371      0.403176     -0.034138
O       9.68256      0.08658      6.96908         0.024894     -1.236663      0.404076
O       9.73386      3.89904     11.56521         0.127643     -0.118044      0.071547
O       9.73337     15.59709     11.48185         0.278183     -0.043531      0.842315
O       9.80829      7.82874      2.70550        -0.568815     -0.824373      0.342717
O       9.78697      7.78045     15.79168        -0.293597     -0.337621      0.872243
O       9.52718      7.71398      7.15678         0.699001      0.447659     -0.242786
O       9.70157      7.82701     11.61141        -0.040132     -0.818795      0.371183
O       9.55199     11.66475      2.61679        -0.225649     -0.557966      0.583224
O       9.67826     11.67067     15.88094         0.164908      0.305446      0.918007
O       9.68913     11.72553      7.22701         0.419152     -0.429523     -0.047018
O       9.69060     11.69556     11.45625        -0.003842      0.812736      0.395782
