  # total energy = -7882.89775266 
CRSYTAL
PRIMVEC
    15.3600000000000000    0.0000000000000000    0.0000000000000000
     0.0000000000000000   15.3600000000000000    0.0000000000000000
     0.0000000000000000    0.0000000000000000    17.440000000000000
PRESSURE
1.68027 1.85655 1.70286 0.040891 0.020803 -0.034844
PRIMCOORD
320 1
Pb       3.77588      3.83191      4.34158         0.369830      0.150037     -0.153809
Pb       3.84913      3.83119     17.37368         0.244626      0.043488      0.130665
Pb       3.81634      0.02146      4.27714        -0.142242      0.154743      0.037694
Pb       3.69859      0.03954     17.43640         0.153089     -0.321971     -0.376957
Pb       0.01223      3.74292      4.36567        -0.538810     -0.018794     -0.557411
Pb       0.05658      3.96575     17.37874        -0.792832     -0.669510      0.431050
Pb      15.34927     15.30732      4.29846         0.151182      0.240422     -0.201451
Pb      15.23944     15.28170     17.42555         0.882017      0.384525     -0.184543
Pb       3.77136      3.73083      8.75978        -0.011856      0.184211     -0.356689
Pb       3.90666     15.35541      8.61094        -0.551451      0.077966      0.753747
Pb      15.29690      3.82767      8.68554         0.009644     -0.357112     -0.609350
Pb      15.26452      0.04172      8.66228         0.584140     -0.211542      0.171593
Pb       3.65664      3.75967     13.05308         0.385677      0.557744     -0.046054
Pb       3.72618     15.27476     13.00717         0.327769     -0.003137      0.443013
Pb       0.00420      3.80495     13.05036        -0.425895     -0.376167     -0.034461
Pb       0.03894     15.35218     13.02181        -0.403486      0.225631      0.371870
Pb       3.83786      7.63791      4.30271        -0.075005      0.002838     -0.186882
Pb       3.77325      7.59935     17.34793         0.160234      0.601980      0.377863
Pb       0.04244      7.76546      4.37067        -0.017683     -0.488938      0.204456
Pb      15.12071      7.69708     17.32688         1.128758     -0.048521      0.494305
Pb       3.91040      7.66537      8.74429        -0.049163     -0.432031     -0.986545
Pb       0.08181      7.59562      8.66792        -0.372557      0.407725      0.179423
Pb       3.77194      7.60376     12.96181         0.318662      0.018033      0.460460
Pb       0.04175      7.62675     13.07849        -0.411716      0.199098     -0.426860
Pb       3.76925     11.57304      4.21389         0.280365     -0.699989      0.129050
Pb       3.96434     11.54633     17.41512        -0.242930     -0.199484      0.015427
Pb      15.29788     11.57494      4.34489         0.715209     -0.104348      0.193450
Pb      15.29388     11.58468     17.30298         0.116130     -0.295482      0.083704
Pb       3.82939     11.54667      8.60764        -0.174282      0.157391      0.191704
Pb      15.24354     11.38650      8.64925         0.790159      0.371154      0.526211
Pb       3.84190     11.52394     13.15968         0.294923      0.117540     -0.386408
Pb       0.04820     11.56309     13.11954        -0.407621     -0.275902     -0.398045
Pb       7.72277      3.73293      4.41011        -0.350143      0.513091      0.068938
Pb       7.65096      3.90980     17.35344         0.211517     -0.237845     -0.454209
Pb       7.73954      0.07591      4.30530        -0.500547     -0.044544     -0.191476
Pb       7.66972      0.06204     17.34653        -0.482299     -0.024428      0.135618
Pb       7.71098      3.72001      8.75946        -0.292369     -0.173483      0.446670
Pb       7.63198     15.16921      8.62788        -0.036194      0.517255      0.864662
Pb       7.76176      3.83880     13.18544        -0.149363      0.521267     -0.562830
Pb       7.57687      0.09562     13.08084         0.328336     -0.977164      0.098532
Pb       7.66773      7.57166      4.29899        -0.306580      0.144800      0.067541
Pb       7.68323      7.72926     17.38951         0.156576     -0.641370     -0.145191
Pb       7.60610      7.69954      8.64488        -0.230063     -0.070932      0.378750
Pb       7.50695      7.66199     12.98995         0.953190     -0.010614      0.221287
Pb       7.66880     11.55163      4.32513        -0.358739     -0.249531     -0.381844
Pb       7.76940     11.49594      0.06743        -0.206499      0.390207     -0.593304
Pb       7.45741     11.50290      8.57138         0.536914      0.299236      0.561836
Pb       7.67278     11.41074     13.08258         0.001781      0.387597     -0.465467
Pb      11.43543      3.80178      4.32128         0.332094      0.630373      0.001532
Pb      11.71237      3.85511     17.38463        -0.805599      0.108018      0.373611
Pb      11.41530     15.27715      4.27942         0.527970      0.374772      0.207613
Pb      11.49466     15.30799     17.41600        -0.661270      0.077613     -0.056300
Pb      11.37769      3.86628      8.70047         0.445274     -0.499344      0.514253
Pb      11.53900     15.27299      8.66042        -0.583298      0.073205      0.540445
Pb      11.59072      3.76202     13.10887        -0.242174      0.526684     -0.364013
Pb      11.61948      0.00104     12.90321        -0.485074     -0.264059      0.772983
Pb      11.42378      7.74844      4.28589         0.632193     -0.560036     -0.142185
Pb      11.59979      7.61012     17.37949        -0.555081      0.159867      0.168370
Pb      11.42486      7.63801      8.71190         0.623885      0.415857      0.651915
Pb      11.44628      7.70444     12.96596         0.398247     -0.223489      0.233570
Pb      11.56531     11.45367      4.35573         0.001486      0.033559      0.247582
Pb      11.46995     11.44694     17.39618         0.388727     -0.060556     -0.160754
Pb      11.61255     11.51761      8.61960        -0.485797     -0.374848      0.455165
Pb      11.51328     11.45197     12.98164        -0.083288     -0.361634      0.190456
Ti       1.87460      1.91617      2.25542        -0.893350     -0.179371      0.254753
Ti       1.86440      1.99170     15.47679        -0.855455     -1.490049      0.691393
Ti       1.90133     13.37727      2.24920        -0.473261      0.339457     -1.177540
Ti       1.95060     13.45579     15.43961        -0.350503      0.414730     -0.746690
Ti      13.31619      1.86888      2.24900         1.802932      0.681796      2.109595
Ti      13.36561      1.79612     15.50270         0.981630      2.270678     -1.189615
Ti      13.34360     13.42076      2.35854         0.823143     -0.097171     -0.594908
Ti      13.40153     13.41862     15.36850         0.050218     -1.041305      0.114227
Ti       1.84256      1.85357      6.62325         0.047266      0.148630      0.951945
Ti       1.86094     13.39479      6.73607        -0.318458      0.459571     -1.136730
Ti      13.35347      1.83044      6.64247         0.687399      1.290611      0.674738
Ti      13.40297     13.37444      6.59515         0.461088      0.440350     -0.131168
Ti       1.88073      1.90574     11.03885        -1.388886     -0.470605     -0.933073
Ti       1.85205     13.43099     11.06125         0.867493     -0.841590     -0.346519
Ti      13.37576      1.92161     10.97871         0.507159     -0.667284      1.073018
Ti      13.43566     13.40719     11.10053        -0.017054     -1.308675      1.102223
Ti       1.85003      5.75389      2.35518         0.152479     -0.056094     -0.251102
Ti       1.90284      5.77340     15.45050        -0.649827      0.483763     -1.530672
Ti      13.44258      5.72429      2.49095        -0.570760     -0.332922      0.807758
Ti      13.38856      5.73974     15.29873         0.302573     -1.025178      0.204449
Ti       1.87818      5.72968      6.67897         1.235563     -0.391796      0.813288
Ti      13.37980      5.78323      6.70317         0.615279     -0.579836     -1.304593
Ti       1.86810      5.76504     11.04768         0.994328     -0.664005     -0.026811
Ti      13.45609      5.70479     11.04765        -0.815836      0.528349      2.200027
Ti       1.98636      9.55989      2.28972         0.083521     -0.537115      0.985015
Ti       1.95095      9.61422     15.42766         0.315909     -0.045177      1.172851
Ti      13.62055      9.57783      2.36763        -1.378691      0.044525      0.098900
Ti      13.48623      9.50690     15.28667        -0.817414      1.709718      1.173399
Ti       2.01700      9.56410      6.71103        -0.594870      0.128723     -1.236669
Ti      13.50733      9.52557      6.71838        -0.567318     -0.406158     -0.381558
Ti       1.96382      9.62461     11.11571        -1.152385      0.695863     -0.276263
Ti      13.50003      9.59979     11.04455        -0.573796     -0.283446      1.030843
Ti       5.75101      1.93409      2.33265        -0.112458      0.246773     -0.169624
Ti       5.65177      1.87776     15.35249         1.713291     -0.120065      0.212401
Ti       5.67583     13.45900      2.29874         1.242616     -0.089762      0.449901
Ti       5.76769     13.39842     15.38062         0.530025      0.295388     -1.144329
Ti       5.71470      1.93323      6.71784        -0.125102     -0.162673     -0.721545
Ti       5.71254     13.48003      6.57263        -0.229490     -0.360147      0.514747
Ti       5.69744      1.93378     11.25967         0.372702     -0.065077     -1.944365
Ti       5.74657     13.42762     11.14486         0.838169     -0.323169      0.152571
Ti       5.75028      5.71542      2.31813        -0.365136      0.031495      0.827574
Ti       5.70806      5.71953     15.31031         1.788493     -0.263828      0.180490
Ti       5.78788      5.65096      6.77031        -1.312351      0.792151     -0.414766
Ti       5.74542      5.71470     11.03888         0.517375     -0.698913      1.405007
Ti       5.83260      9.59882      2.25117        -0.792466     -0.116091      1.633305
Ti       5.81830      9.54200     15.46400        -0.717807      0.649137     -0.257183
Ti       5.83673      9.60033      6.52714        -1.632151     -0.285593      0.006118
Ti       5.69575      9.54448     10.98498         1.700720      0.978781      1.035449
Ti       9.60470      1.96784      2.26043        -0.345818     -0.044509     -1.493827
Ti       9.54190      1.95574     15.33780        -0.089566      0.505048      2.143618
Ti       9.53962     13.41824      2.33140         0.276139     -0.065740     -0.246567
Ti       9.60087     13.48304     15.42431        -0.675335     -0.803539     -0.882717
Ti       9.56744      1.84629      6.77707        -0.868679      0.287612      0.816666
Ti       9.58570     13.36972      6.62706        -0.186865      0.443741      0.815647
Ti       9.52709      1.87773     11.14378         0.488391      0.387547     -1.184803
Ti       9.60208     13.34395     11.07005        -0.406486      0.716873      1.117261
Ti       9.49446      5.71556      2.31144         1.792216      0.396331      0.333146
Ti       9.67027      5.77837     15.35844        -1.311766     -0.028344     -0.131439
Ti       9.56561      5.81581      6.81774        -0.210823     -1.830005     -1.782791
Ti       9.59592      5.77585     11.03379         0.301513     -0.533311      0.595275
Ti       9.64720      9.64680      2.40267        -0.190624     -0.500112      0.046967
Ti       9.62946      9.58540     15.41936         0.605827      0.202503     -0.518694
Ti       9.60578      9.58535      6.65410         0.893790      0.710784      1.667208
Ti       9.58341      9.56911     10.89279         0.477881     -0.110995      1.413680
O       1.80909      1.85418      0.48046         0.703117      0.273375      0.369682
O       1.77272      1.96102     13.74733         0.357598      0.258305     -1.528083
O       1.88719     13.45053      0.39929         0.158733      0.066982      1.103352
O       2.05011     13.39923     13.61637        -0.441948      0.358170      0.871896
O      13.37308      2.05189      0.55581         0.092630     -0.595184     -2.110365
O      13.38491      1.81938     13.73318        -0.009288      0.128380      0.048944
O      13.31099     13.31968      0.56086         0.462306      0.286977      0.600081
O      13.50705     13.40002     13.62226        -0.369540      0.015374     -0.053239
O       1.76365      1.79986      4.86911         0.285536      0.320732     -0.652547
O       1.69628     13.42591      4.93582         0.955512     -0.127314      0.485030
O      13.45290      1.80568      4.91219        -0.273136     -0.004650      0.175441
O      13.37241     13.42215      4.80942         0.237647      0.308285      0.766600
O       1.77324      1.86737      9.27117         0.396265      0.127913      0.487127
O       1.95456     13.30882      9.32023        -0.131035      0.262470     -0.488375
O      13.39768      1.87480      9.25722         0.005948     -0.022806     -1.217112
O      13.36669     13.27335      9.40646        -0.013986      0.078968     -2.341725
O       1.85283      5.70574      0.58895         0.124438      0.204085     -1.100524
O       1.87186      5.73418     13.63484         0.118743     -0.199095      0.957748
O      13.30300      5.70691      0.75519         0.548242      0.473180     -1.104436
O      13.35351      5.74471     13.57316         0.454442     -0.134675     -0.712235
O       2.11028      5.68724      4.94834        -0.749180      0.285444     -0.263237
O      13.51178      5.85903      4.92206        -0.743783     -0.012833      0.443484
O       1.90234      5.77927      9.30509        -0.118614      0.021487     -0.656627
O      13.37799      5.69502      9.36070         0.203504     -0.072739     -1.891731
O       1.93307      9.54454      0.59494        -0.151967     -0.183702     -2.180383
O       2.09255      9.56900     13.73180        -0.103855     -0.177688     -1.896543
O      13.51245      9.60638      0.60588         0.284216     -0.064353     -0.152376
O      13.46807      9.64120     13.59809         0.027537     -0.335403     -1.473514
O       1.94733      9.47824      4.92575         0.319986      0.303499      0.486029
O      13.54309      9.42646      4.96718        -0.061339      0.227682     -0.529561
O       1.81615      9.72244      9.38076         0.572718     -0.481929     -0.476401
O      13.44615      9.62696      9.31708         0.393153      0.201014     -1.809107
O       5.88644      1.93658      0.57166        -0.843256      0.106859      0.064550
O       5.83838      1.71208     13.60983        -0.700122      1.094962     -0.800089
O       5.64590     13.45219      0.56177        -0.025982      0.324233     -0.288484
O       5.81945     13.33282     13.52996        -0.221098      0.115512      1.545897
O       5.72784      2.02776      4.95188         0.033842     -0.528900      0.051884
O       5.67447     13.45387      4.83911         0.231277     -0.030904     -0.474780
O       5.61052      1.88479      9.46755         0.004388      0.056595     -0.077146
O       5.79035     13.34636      9.35146        -0.037723      0.100402     -0.041701
O       5.82515      5.74325      0.58469        -0.400341     -0.237505     -0.613667
O       5.87361      5.65579     13.57114        -0.608751      0.591150     -0.069379
O       5.72900      5.72098      5.02160         0.034145     -0.153821     -0.535020
O       5.66916      5.67483      9.32549         0.053520      0.343640     -1.447746
O       5.82790      9.51401      0.52162         0.056450      0.094303     -1.146667
O       5.77465      9.59874     13.69688         0.164215     -0.084060     -0.001752
O       5.84683      9.74198      4.77852        -0.353262     -0.410021      0.263083
O       5.81870      9.50786      9.25112        -0.326948      0.257941     -1.000182
O       9.67692      1.93004      0.48033        -0.539589      0.074822      1.325631
O       9.45320      1.96679     13.60868         0.576268     -0.267040     -0.824835
O       9.57796     13.40634      0.57205         0.149501      0.076580      0.310131
O       9.67395     13.36361     13.65992        -0.221621      0.108647      0.658240
O       9.46201      2.00519      5.04231         0.357622     -0.390359     -0.776510
O       9.75615     13.53557      4.90747        -0.568626     -0.193742     -1.066356
O       9.59923      1.85287      9.35765        -0.393839      0.154452      0.067284
O       9.53173     13.41942      9.35589         0.116951     -0.135154     -1.426827
O       9.67576      5.71624      0.58705        -0.439516      0.309459     -0.637721
O       9.57281      5.78883     13.60614         0.269113      0.074072      0.037053
O       9.54000      5.66111      4.97811         0.077655      0.547607      1.552726
O       9.66492      5.75289      9.24783        -0.131444     -0.006151     -0.411704
O       9.60080      9.65854      0.67598         0.062149     -0.073131     -1.267587
O       9.65608      9.51420     13.68169        -0.291981      0.503832     -0.425058
O       9.69625      9.57457      4.94735        -0.484537     -0.144521     -1.347562
O       9.59299      9.51065      9.16980        -0.166842      0.278393     -1.330441
O       3.79969      1.95990      2.72870        -0.215660     -0.575114     -0.317837
O       3.83899      1.97227     15.77297        -0.731157     -0.029017      0.430259
O       3.85096     13.48371      2.75497        -1.125698      0.007926     -0.117180
O       3.83447     13.49934     15.81165        -0.008281     -0.150047      0.045572
O      15.25025      1.99124      2.67110         1.106059     -0.678544      0.122293
O       0.02977      1.92576     15.84966        -1.307013      0.062856      0.382155
O       0.06241     13.41201      2.71473        -0.815958     -0.196517     -0.301397
O      15.29268     13.55938     15.78311         0.495372     -0.658979      0.161520
O       3.74273      1.81367      7.10093         0.428496      0.495253     -0.091389
O       3.82610     13.49748      7.07946        -0.445419     -0.562027     -0.119095
O      15.29977      1.83169      7.12959        -0.611902      0.436520     -0.212079
O      15.33735     13.41303      7.08348        -1.007363     -0.135718      0.053889
O       3.73057      1.99303     11.52327         0.364862     -0.330467      0.194062
O       3.91118     13.48755     11.52226        -1.137248     -0.361669     -0.215579
O      15.29578      1.75722     11.44507         0.204268      0.458463      0.182650
O       0.00707     13.41810     11.46811         0.183170     -0.148255      0.207836
O       3.73931      5.79338      2.74195         1.683902     -0.294362     -0.051372
O       3.85132      5.73951     15.75706        -0.776278     -0.286091      0.217342
O      15.35880      5.74145      2.87020        -0.293012     -0.283495     -0.213870
O      15.23866      5.81619     15.79274         1.549021      0.018793      0.099176
O       3.81305      5.71276      7.16027        -0.297641      0.401031      0.310696
O      15.28996      5.75017      7.09682         0.621340      0.178211      0.252722
O       3.83069      5.63891     11.50390        -0.354360      0.253711     -0.055026
O       0.09593      5.69771     11.49337        -2.168591      0.162226      0.111891
O       3.86440      9.56238      2.69649         0.476836     -0.332957      0.134530
O       3.91272      9.68644     15.91420        -0.853431     -0.411334     -0.063397
O       0.10608      9.59082      2.83703        -0.873802      0.312438     -0.267901
O       0.00142      9.54566     15.67113         0.289753     -0.136322      0.565854
O       3.87294      9.60083      7.08427         0.196733     -0.367345      0.061481
O       0.04744      9.55048      7.11727        -0.599706     -0.036959      0.131580
O       3.91815      9.54923     11.47399        -1.756676     -0.192372     -0.058168
O       0.02678      9.69956     11.49945         0.951736     -0.895725      0.392747
O       7.62078      2.01180      2.73523         1.104219     -0.572391      0.226194
O       7.64097      1.97518     15.83587         0.947255     -0.088412     -0.255651
O       7.69236     13.38818      2.69950        -0.228555      0.088865      0.249170
O       7.57212     13.35975     15.92009         1.328577      0.737228     -0.264737
O       7.58601      1.87396      7.12438         0.374445      0.099855      0.265495
O       7.59282     13.40581      7.07608         0.220961     -0.361463     -0.459638
O       7.60216      1.91771     11.51460         1.250946     -0.527348      0.046116
O       7.76147     13.52643     11.55934        -0.621500     -0.314305     -0.293186
O       7.69682      5.65051      2.76218        -1.338176      0.150678      0.092062
O       7.66922      5.73584     15.78723        -0.181699      0.486692      0.133433
O       7.64521      5.69550      7.14858         0.630971     -0.062594      0.277117
O       7.74457      5.86531     11.43377        -1.007905      0.218662     -0.222795
O       7.64387      9.73635      2.78533         0.720599      0.273802     -0.139782
O       7.72376      9.60117     15.85018        -0.277410     -0.074671      0.154087
O       7.62726      9.62020      6.96004         1.217034     -0.118827      0.281056
O       7.74522      9.40204     11.33961        -0.896879      0.340727      0.243874
O      11.49603      1.97553      2.67499        -1.088747     -0.421731      0.399581
O      11.48038      1.98618     15.91009         0.063077     -0.782893     -0.806167
O      11.51409     13.49187      2.75518        -0.374497     -0.321358     -0.174964
O      11.46030     13.48540     15.84746         0.821158     -0.071745     -0.124010
O      11.42059      1.79944      7.14526         0.700911      0.005146     -0.418841
O      11.47372     13.38248      7.11812         0.760637      0.361872     -0.203089
O      11.51416      2.08234     11.49591        -0.091129     -0.857588      0.000726
O      11.55790     13.17664     11.49191        -0.462857      1.027507     -0.156949
O      11.41980      5.76612      2.80335         0.375078      0.434500      0.416464
O      11.55942      5.68449     15.86110        -0.326020      0.888043     -0.204312
O      11.52183      5.59477      7.14086        -1.050395      1.119715     -0.241274
O      11.50153      5.67556     11.53146         1.020563     -0.346109     -0.322372
O      11.59307      9.73338      2.74546        -0.181371     -1.265929      0.109205
O      11.57288      9.59086     15.74708        -0.335201      0.235010      0.546656
O      11.54729      9.57566      6.96480        -0.869082      0.068315      0.520651
O      11.55729      9.63565     11.23213        -0.311777      0.090209      0.843263
O       1.86516      3.79965      2.64077         0.179843     -0.286374      0.429376
O       1.89696      3.88807     15.88722         0.222716      0.339058     -0.076535
O       1.91742     15.27537      2.63931         0.064677      0.959205      0.090387
O       1.84711      0.06222     15.81617         0.685128     -0.894408      0.160640
O      13.38247      3.79858      2.77684        -0.075616      0.499048      0.425645
O      13.50886      3.86570     15.73895        -0.404528     -0.323453      0.296663
O      13.41551     15.34318      2.69756        -0.081262     -0.406507     -0.343169
O      13.43664     15.34471     15.76451        -0.486307     -0.662766      0.743610
O       1.85938      3.80569      7.09819        -0.203435      0.071105     -0.097926
O       1.82247      0.01828      7.04357         0.128563     -1.058389      0.320629
O      13.39095      3.82934      6.95025         0.182531     -0.881987      0.389854
O      13.42262     15.25567      7.13790        -0.391685      0.282791     -0.340585
O       1.78783      3.78552     11.36540         0.403766      0.068550      0.592412
O       1.83857     15.31744     11.46782         0.814291      0.333524      0.062509
O      13.50197      3.71458     11.47156         0.321308      1.607364      0.099964
O      13.38170     15.27238     11.37057        -0.321909      1.040845      0.196853
O       1.89288      7.62088      2.68041         0.074555      0.526805      0.439205
O       1.89690      7.65726     15.73380         0.399265     -0.212709      0.570155
O      13.51387      7.70813      2.74525        -0.329481      0.095952     -0.019335
O      13.37548      7.66139     15.75917         0.026221     -0.278248      0.206336
O       1.88047      7.68983      7.13036         0.326345     -0.686623      0.144395
O      13.32528      7.68996      7.22416         0.560994     -0.774422     -0.167728
O       1.83536      7.64645     11.47399         0.755690      0.611714      0.089295
O      13.48319      7.60774     11.46255         0.280959      0.245138     -0.078919
O       1.97658     11.45366      2.51060         0.116435      1.487244      0.836371
O       1.86516     11.52826     15.63456        -0.056007      0.418172      0.726218
O      13.48001     11.52866      2.90012         0.002831     -0.088631     -0.696468
O      13.49929     11.49491     15.78655        -0.307192      0.332097     -0.124834
O       1.86635     11.49029      7.05363         0.489081      0.078495      0.208968
O      13.41444     11.47976      6.88760         0.098444      0.356410      0.695115
O       2.00850     11.50797     11.48842         0.088162      0.133016      0.509170
O      13.55293     11.45313     11.48681        -0.172213      0.509858      0.363283
O       5.70168      3.83716      2.80689        -0.156786      0.351215     -0.339815
O       5.80519      3.79196     15.67411        -0.607267      0.884013      0.534457
O       5.79911      0.01724      2.81020        -0.216234      0.149194     -0.226925
O       5.83210      0.03857     15.68694        -0.366084     -0.972800      0.652963
O       5.62054      3.77434      7.13429         0.364556     -0.053643      0.414081
O       5.67470     15.33487      7.09308         0.507566      0.147488     -0.202458
O       5.90264      3.85810     11.44966        -0.665979     -0.094504      0.454775
O       5.73265     15.35542     11.54606        -0.079143     -0.097363     -0.095293
O       5.90801      7.64977      2.67703        -0.427325     -0.194127      0.211814
O       5.66858      7.66947     15.76365         0.495257     -0.549615      0.118528
O       5.80850      7.63514      7.06763        -0.416628      0.591624      0.116691
O       5.71204      7.67098     11.42155        -0.246764     -0.731133      0.117015
O       5.64924     11.53160      2.57776         0.195759      0.321519      0.331503
O       5.82987     11.55273     15.83426        -0.693619     -0.680381      0.138320
O       5.67891     11.52561      6.94664         0.250959     -0.127332      0.338641
O       5.75367     11.45228     11.45050         0.520839     -0.003153      0.008184
O       9.57496      3.82770      2.75681         0.102016     -0.502560      0.037005
O       9.62444      3.91980     15.67685        -0.291198     -1.351183      0.145498
O       9.59715      0.03912      2.72359        -0.249777     -0.068093      0.054025
O       9.51355      0.00693     15.91889         0.481489      0.278298     -0.749557
O       9.51180      3.79823      7.29565         0.263144     -0.274949     -0.680318
O       9.42624     15.22982      7.11009         0.790388      1.191717     -0.110200
O       9.49902      3.87126     11.43584         0.107893     -0.521549      0.201280
O       9.83642      0.01605     11.42631        -0.604589     -0.349671      0.082922
O       9.34505      7.76732      2.70404         1.189723     -0.957114      0.169001
O       9.62572      7.70820     15.72025         0.201924     -0.480014      0.976444
O       9.57711      7.64423      7.21008        -0.081003      0.533065     -0.864538
O       9.83293      7.65479     11.42187        -0.987681      0.533339     -0.636824
O       9.70944     11.50728      2.79581        -0.647692      1.221585      0.200090
O       9.58851     11.56206     15.92526        -0.015613     -0.440065     -0.257374
O       9.60673     11.54050      6.95215        -0.412341     -1.303525      0.308787
O       9.51510     11.45367     11.41844         0.079102     -0.394323      0.065527
