  # total energy = -7875.24854871 
CRSYTAL
PRIMVEC
    15.6000000000000000    0.0000000000000000    0.0000000000000000
     0.0000000000000000   15.6000000000000000    0.0000000000000000
     0.0000000000000000    0.0000000000000000    17.640000000000000
PRESSURE
-5.72065 -5.67589 2.30912 -0.053838 0.144308 -0.039729
PRIMCOORD
320 1
Pb       3.80172      3.80376      4.44295         0.115226      0.265953     -1.233450
Pb       3.96874      3.97714     17.61573        -0.205546     -0.667873     -0.851433
Pb       3.78683     15.45760      4.36616        -0.181045      0.550596     -0.975601
Pb       3.77535     15.57073      0.02608        -0.060344      0.138262     -0.991287
Pb      15.58163      3.86428      4.38166         0.301676      0.432214     -0.862895
Pb       0.02281      4.00300      0.01068         0.073716     -0.236355     -0.860798
Pb      15.56173     15.53440      4.34773         0.134111     -0.370857     -0.712240
Pb      15.42025     15.59488     17.62237         0.659778      0.203580     -0.902239
Pb       3.81748      4.01256      8.84308        -0.093703     -0.214442     -1.174538
Pb       3.87876      0.00563      8.76136        -0.101112      0.273340     -0.793667
Pb      15.54517      3.98376      8.85346         0.191689     -0.053873     -1.530268
Pb      15.55516     15.58424      8.68478        -0.394728      0.228467     -0.555391
Pb       3.94764      3.66282     13.28305         0.376735      0.430903     -0.743056
Pb       3.82878     15.53167     13.16057         0.795987     -0.184593     -0.366267
Pb       0.01714      3.86250     13.19674         0.055878      0.284726     -0.706466
Pb      15.53520      0.03097     13.19212        -0.295159     -0.044499     -0.572534
Pb       3.92578      7.77206      4.46050        -0.150947     -0.412032     -0.943156
Pb       3.99081      7.77100     17.63273        -0.312119      0.361417     -0.895184
Pb       0.07231      7.86961      4.37722        -0.221911     -0.400481     -0.716419
Pb       0.08747      7.79474     17.51900        -0.076214      0.060635     -0.651138
Pb       3.90330      7.85991      8.84275        -0.271730      0.117848     -0.831767
Pb      15.50422      7.79756      8.90672        -0.042819      0.082531     -1.348470
Pb       3.92787      7.73316     13.18380        -0.099026      0.178949     -0.722051
Pb       0.11275      7.81667     13.20153        -0.144902     -0.127054     -0.797434
Pb       3.91602     11.66030      4.37895        -0.157651     -0.428433     -0.839778
Pb       3.87758     11.69891     17.62841         0.202131     -0.208319     -1.039665
Pb      15.56122     11.65737      4.31002         0.167413      0.214482     -0.207851
Pb      15.57548     11.69879     17.47272         0.409305     -0.334255     -0.418304
Pb       3.82602     11.70567      8.86237         0.424563     -0.462329     -0.879944
Pb      15.51701     11.83173      8.79396        -0.432665     -0.480401     -1.233317
Pb       3.83575     11.82351     13.17687         0.087992     -0.470513     -0.764749
Pb      15.44612     11.74499     13.19494         0.666626     -0.309900     -0.915918
Pb       7.80261      3.64262      4.53325        -0.091988      0.697230     -1.332157
Pb       7.74626      3.90141     17.63557         0.488501     -0.334777     -0.668876
Pb       7.62812     15.45224      4.43513         0.058384      0.202454     -0.702670
Pb       7.68953      0.02261     17.59838         0.093801     -0.064030     -0.610792
Pb       7.57232      3.94982      8.82142         0.220717     -0.010237     -0.512199
Pb       7.77265      0.00565      8.81795         0.116976     -0.054102     -1.321067
Pb       7.97676      3.97233     13.21639        -0.438026     -0.226585     -0.859716
Pb       7.81524      0.09946     13.19395         0.029609     -0.150995     -0.809459
Pb       7.91652      7.69218      4.42213        -0.290970     -0.556593     -1.145240
Pb       7.78693      7.85511      0.05153         0.460763     -0.473930     -1.148115
Pb       7.70394      7.84103      8.78548         0.184230     -0.192315     -0.524219
Pb       7.73216      7.88907     13.15694         0.961734     -0.154716     -0.327055
Pb       7.82473     11.64874      4.42563        -0.117480      0.111142     -0.999805
Pb       7.77023     11.68934     17.61057         0.010305      0.216828     -1.091550
Pb       7.82547     11.75901      8.85060         0.206862      0.049891     -0.806108
Pb       7.76227     11.82634     13.17504         0.101262     -0.541765     -0.816061
Pb      11.73644      3.83428      4.41843         0.037967     -0.016693     -1.239838
Pb      11.74135      3.81695      0.04969         0.077916      0.077682     -0.810585
Pb      11.56019     15.39736      4.44187         0.273153      0.556455     -0.702400
Pb      11.48763     15.47558      0.03517         0.096982      0.019301     -0.928473
Pb      11.57342      3.93700      8.81844         0.331798     -0.067785     -1.189567
Pb      11.81612      0.03133      8.75349        -0.174556      0.169439     -1.044191
Pb      11.81479      3.93318     13.18067        -0.452918      0.118039     -0.504391
Pb      11.67869     15.56674     13.16220        -0.585123      0.183014     -0.828804
Pb      11.72383      7.67461      4.32740         0.340292     -0.109925     -1.130200
Pb      11.63826      7.69306     17.54173         0.141418      0.044721     -0.583735
Pb      11.57901      7.81348      8.74991         0.487207     -0.262047     -0.597988
Pb      11.71316      7.72196     13.20060        -0.069003      0.051022     -0.790658
Pb      11.68936     11.55309      4.24533        -0.016520      0.174794     -0.030282
Pb      11.75012     11.58574     17.49247        -0.734091      0.199562     -0.118953
Pb      11.74103     11.67510      8.73804        -0.327470      0.312457     -0.557262
Pb      11.59847     11.66958     13.12476        -0.292301     -0.184384     -0.678866
Ti       1.87924      1.84644      2.31235         1.256844      0.381661      1.246753
Ti       1.95473      1.94937     15.57901        -0.085489     -0.849447      2.283760
Ti       1.87939     13.55970      2.22777        -0.668818      0.872906      0.666926
Ti       1.99331     13.60244     15.54292        -0.163216      0.403173      1.279656
Ti      13.61754      1.84973      2.40467        -0.219751      0.472939      3.398979
Ti      13.68447      1.96764     15.54678        -0.068395      0.328712      2.172368
Ti      13.46211     13.59156      2.27633         1.248047      0.549527      2.379580
Ti      13.62289     13.60650     15.44636         0.007385      1.120084      1.145708
Ti       1.80916      1.93227      6.72684         0.655305     -0.027343      1.397333
Ti       1.91726     13.59674      6.73959        -0.685975      0.769130      0.778227
Ti      13.63527      1.99452      6.56792        -0.202138     -0.668224      2.271714
Ti      13.56989     13.67359      6.59860         0.415130     -0.353318      3.120912
Ti       2.01097      1.89164     11.10065        -0.331048      1.179797      1.197079
Ti       1.84247     13.70337     11.01113         0.134152     -1.121508      3.831659
Ti      13.63377      2.00563     11.08639        -0.278312     -0.102533      4.536969
Ti      13.59612     13.70429     11.10420        -0.318722     -0.408709      0.849432
Ti       2.02674      5.81540      2.32051        -0.575835      0.029238      3.225194
Ti       2.09133      5.78178     15.44633        -1.017752      0.607072      1.285605
Ti      13.73665      5.79023      2.20444         0.067544      0.568596      4.053759
Ti      13.68237      5.87859     15.48033         0.355223     -0.211425      1.959635
Ti       1.94390      5.92800      6.70536        -0.671783     -0.467211      1.700216
Ti      13.59846      5.85310      6.65449         0.944961      0.132488      1.192105
Ti       1.99903      5.75169     11.12099         0.079691      0.967684      1.979623
Ti      13.70165      5.82658     11.06316        -0.462065      0.983716      1.875707
Ti       1.95861      9.74448      2.29528        -0.303208     -0.693845      0.606591
Ti       2.01070      9.72558     15.40898        -0.211494     -0.381384      3.008075
Ti      13.62934      9.76941      2.29943         0.981807     -1.301735      2.720972
Ti      13.63016      9.79096     15.52854         0.116086     -1.877124      1.490253
Ti       1.90200      9.76645      6.85719        -0.332989     -0.449318      1.421322
Ti      13.54787      9.75573      6.71937         1.224426     -0.271522      2.603683
Ti       1.94460      9.71246     11.15578         0.188366      0.057142      1.726932
Ti      13.60431      9.74373     11.15349         0.533563     -0.539206      2.146666
Ti       5.81095      1.86971      2.26225        -0.420575      0.441292      1.933728
Ti       5.80287      1.91565     15.59618         0.209290     -0.440613      3.857700
Ti       5.77153     13.49753      2.26407         0.582215      0.268568      1.798741
Ti       5.89343     13.59991     15.55004        -0.380782      0.120195      2.305071
Ti       5.76926      1.92259      6.70760         0.036740     -0.355347      3.420506
Ti       5.77469     13.67277      6.73130         0.613276      0.123536      2.597226
Ti       5.87814      1.97088     11.07527         0.751929     -0.232022      4.736179
Ti       5.85288     13.64833     10.98907         0.353735      0.395299      2.797442
Ti       5.91791      5.81896      2.27148         0.193099     -0.243947      5.128495
Ti       5.99773      5.82094     15.47110        -0.268511     -0.258212      0.011568
Ti       5.86847      5.84220      6.67405        -0.829949     -0.527504      0.536755
Ti       5.87132      5.86282     11.20443         0.446046     -0.750263      2.510861
Ti       5.87121      9.65502      2.31806        -0.670162     -0.416015      2.271960
Ti       5.87949      9.62079     15.42670         0.310091      1.004177      1.469782
Ti       5.87238      9.83738      6.82332        -1.080220      0.151859      1.997320
Ti       5.86815      9.69625     11.13745         0.184868      0.930135      1.903006
Ti       9.66644      1.81714      2.36746         0.590305      0.936991      2.291047
Ti       9.81758      1.95762     15.60360        -0.343112     -0.387007      1.925784
Ti       9.68915     13.54129      2.24904        -0.527634      0.388765      0.455257
Ti       9.73439     13.62709     15.48882        -0.050844      0.072914      1.822153
Ti       9.69891      1.94799      6.71989         0.101559     -0.690512      2.582550
Ti       9.71041     13.62291      6.71825        -0.243559      0.082066      2.407853
Ti       9.80187      1.99264     11.04118        -1.008698     -0.152444      3.066249
Ti       9.70887     13.64593     10.99617         0.286239      0.041633      3.045635
Ti       9.79944      5.77371      2.23611        -0.947301     -0.478667      1.628865
Ti       9.84442      5.73952     15.52477        -0.227937      0.738359      3.922770
Ti       9.68878      5.80759      6.76347         0.320179      0.286520     -0.103191
Ti       9.76847      5.84704     11.04365        -0.356587      0.280167      2.540432
Ti       9.70732      9.67900      2.23966         0.151376      0.322133      2.303776
Ti       9.75982      9.67815     15.51528        -0.282356     -0.138401      1.138627
Ti       9.72436      9.70171      6.71670         0.200297      0.643731      4.470684
Ti       9.82047      9.68267     11.06931        -1.594014      0.090599      4.158611
O       1.97477      1.88097      0.58999        -0.079616      0.015957     -0.747093
O       1.97833      1.96974     13.85715        -0.122149     -0.121509     -2.198148
O       1.88600     13.61344      0.47057         0.207859     -0.429143     -0.615653
O       2.03980     13.53635     13.82729         0.061966      0.506719     -1.818491
O      13.61954      2.03550      0.75848         0.108268     -0.194228     -3.614226
O      13.70131      2.02647     13.83701         0.131945     -0.394057     -1.547117
O      13.39753     13.48384      0.59228         0.399080      0.260674     -1.913117
O      13.58559     13.62272     13.70799         0.059715     -0.065268     -0.724381
O       1.87536      1.80201      4.99497         0.014057     -0.055985     -0.322730
O       1.85391     13.58342      5.02131         0.660101      0.079200     -1.062784
O      13.64985      1.63826      4.88217         0.206213      1.007346     -0.877714
O      13.65042     13.61866      4.93586        -0.268047      0.040432     -2.475913
O       2.01121      1.95326      9.40960        -0.125574     -0.054703     -0.755963
O       1.83585     13.75800      9.34470         0.174687     -0.397312     -1.646144
O      13.56192      1.88271      9.47636        -0.198689     -0.105249     -4.287621
O      13.65225     13.76452      9.38421        -0.031384     -0.195326     -1.243046
O       2.13241      5.88289      0.64396         0.130218     -0.313159     -2.763881
O       1.92370      5.79851     13.73075         0.201729     -0.314049     -0.812331
O      13.72415      5.64523      0.53421        -0.277772     -0.024944     -2.358541
O      13.65797      5.83252     13.76298         0.132214     -0.090171     -0.895419
O       1.85007      6.01888      5.00316         0.075876     -0.320464     -1.044013
O      13.76355      5.86856      4.91866        -0.630767     -0.088433     -0.053122
O       2.03222      5.79760      9.39584        -0.188800     -0.046408     -0.964425
O      13.69457      5.84231      9.34263        -0.083748      0.069498     -0.901896
O       1.96973      9.68112      0.55947         0.035419      0.116763     -0.300829
O       1.90168      9.68666     13.73273         0.040199      0.138735     -1.822621
O      13.67887      9.81454      0.64689        -0.061346      0.339951     -3.034738
O      13.57459      9.75512     13.81549         0.201697      0.271906     -0.862470
O       1.93628      9.66921      5.16753         0.170763      0.476495     -2.056299
O      13.62342      9.89592      5.05224        -0.280635     -0.301158     -2.474347
O       1.99009      9.57968      9.43244        -0.063920      0.442097     -1.202649
O      13.55789      9.63026      9.46359         0.063275      0.022088     -1.629174
O       5.89649      1.92108      0.53504        -0.259878      0.280551     -0.234823
O       5.79174      1.96309     13.93628        -0.189827     -0.278373     -2.812665
O       5.88613     13.33152      0.58616        -0.131432      0.193577     -1.901873
O       5.93151     13.66911     13.87231        -0.046903     -0.020754     -2.222250
O       5.84985      1.72743      5.05918        -0.133812      0.292950     -2.811203
O       5.87691     13.69529      5.01631        -0.151937     -0.326699     -1.974110
O       5.88681      2.00417      9.42534         0.190515      0.050278     -3.627548
O       5.64059     13.73158      9.29914         0.529572     -0.208340     -0.868803
O       5.81235      5.91000      0.60185        -0.353569     -0.133360     -3.102887
O       5.96866      5.77249     13.72131         0.022848      0.045554      0.281070
O       5.84102      5.77845      4.95759         0.194577      0.383510     -0.278523
O       5.88879      5.73586      9.49895         0.155171      0.173075     -1.954468
O       5.77749      9.59062      0.62672         0.205175     -0.132553     -2.196535
O       6.05990      9.72061     13.72404        -0.436113     -0.133708     -0.423218
O       5.76552      9.98260      5.14193         0.231744     -0.331138     -1.732868
O       5.76132      9.73487      9.39631         0.271067     -0.360708     -0.850526
O       9.61094      1.94341      0.69446         0.301064     -0.357012     -2.194019
O       9.86939      1.98168     13.91409        -0.102423     -0.130213     -1.435538
O       9.70871     13.64259      0.51217         0.177507     -0.124296     -0.440412
O       9.62399     13.73764     13.78706         0.512624     -0.018284     -1.523290
O       9.68530      2.01732      5.03971         0.330233      0.045323     -2.420331
O       9.68274     13.53266      5.02260        -0.395496     -0.173213     -2.230190
O       9.78926      1.89855      9.36432        -0.145202      0.179444     -3.056086
O       9.57707     13.61926      9.32262         0.213500      0.468463     -1.929470
O       9.80448      5.91955      0.52286         0.015559     -0.238949     -0.734999
O       9.87952      5.59123     13.87833        -0.048071      0.137846     -3.185628
O       9.63202      5.89617      5.00551         0.351781     -0.078014     -0.413988
O       9.68507      5.93305      9.33013         0.089911     -0.280659     -1.528355
O       9.66425      9.56734      0.56031        -0.017285      0.201725     -2.021460
O       9.82068      9.74727     13.80875         0.053653      0.003424     -0.694113
O       9.82514      9.80653      5.07688        -0.111832      0.224940     -3.510229
O       9.75989      9.74973      9.41649         0.120227     -0.256995     -3.199143
O       3.87279      1.96318      2.81528         0.837298     -0.396698     -0.097592
O       3.83512      1.93551     16.05598         0.568010     -0.000472      0.008306
O       3.91470     13.57504      2.60332        -0.337982     -0.091848      0.565468
O       3.93108     13.64571     15.88200        -0.315908     -0.918389      0.648200
O       0.08616      1.87554      2.71455        -1.421833     -0.515241      0.368155
O       0.03345      1.94425     16.10116        -0.928899     -0.298493     -0.187255
O       0.01704     13.70927      2.63992        -0.735110     -0.437310      0.078223
O      15.59782     13.57260     15.68180        -0.912948     -0.302954      0.919049
O       3.82444      1.82474      7.20967         0.234773      0.475411     -0.403273
O       3.85346     13.82190      7.11277        -0.356308     -0.453441      0.005304
O      15.51330      1.95669      7.31160        -0.240119     -0.180451     -0.523860
O      15.53763     13.57580      6.97553        -0.295249      0.012882      1.074347
O       3.98118      1.91709     11.56752        -0.930173      0.327819      0.256135
O       4.02717     13.52894     11.55385        -1.143914      0.248625     -0.097964
O      15.53135      1.99690     11.47238         1.450662     -0.194756      0.599560
O      15.54209     13.59948     11.45200         1.536559      0.388055      0.426306
O       3.87710      5.81851      2.87643         0.286225      0.062175     -0.208458
O       3.98163      5.75265     15.74598        -0.208167     -0.008917      0.775012
O      15.56707      5.75204      2.60593         0.973284     -0.129943      0.181007
O       0.07055      5.82411     15.96365        -0.592007     -0.271470      0.113218
O       3.81130      5.72009      7.04832         0.548922     -0.035196      0.426394
O      15.53394      5.84138      7.20131         0.264366      0.188581      0.372915
O       3.97382      5.97244     11.51230        -0.522053     -0.517939      0.173670
O       0.07410      5.84832     11.51338        -0.161054     -0.204143     -0.105319
O       3.83803      9.74260      2.69006         0.068030     -0.189773      0.681418
O       3.90255      9.61779     15.89108         0.284094      0.325910     -0.078270
O       0.00084      9.72061      2.79176         0.368764      0.323937      0.119073
O       0.00380      9.71847     16.04606        -0.404681      0.252245     -0.459041
O       3.93649      9.80090      7.25538        -0.388566     -0.067646      0.364800
O      15.53293      9.78847      7.18064         0.271051     -0.246610      0.555398
O       3.98164      9.71102     11.60850        -0.392898      0.018758     -0.088283
O      15.59618      9.71696     11.61341        -0.289562     -0.094724     -0.197300
O       7.78238      1.84849      2.87548        -0.469414     -0.054410      0.009847
O       7.74860      1.85300     16.09683         0.599927      0.164243     -0.373195
O       7.75806     13.48072      2.67098         0.059900      0.205600      0.588334
O       7.82868     13.66329     15.96531        -0.320260     -0.118189      0.413074
O       7.79880      1.90303      7.00678        -0.201662      0.663251      0.727937
O       7.67828     13.62303      7.21949         0.471002     -0.077662      0.030081
O       7.79307      1.84338     11.68624        -0.121842      0.726293     -0.650721
O       7.85261     13.66232     11.49570        -0.976053      0.288433     -0.152071
O       7.81613      5.97942      2.64575         0.190224      0.224476      0.058089
O       7.86354      5.80569     15.98285        -0.557566     -0.290819     -0.029482
O       7.77200      5.88113      7.07832        -0.112967     -0.182730      0.655835
O       7.89158      5.96016     11.61732        -0.419868     -0.704030     -0.194399
O       7.74483      9.67992      2.78127         1.006349      0.358798     -0.046058
O       7.83244      9.47820     15.93577        -0.250781      0.918080      0.248388
O       7.81627      9.83348      7.25181        -0.622795     -0.371015     -0.297430
O       7.89473      9.68733     11.55955        -0.276934     -0.282378     -0.259295
O      11.71516      2.02434      2.86800        -0.961506     -0.216722     -0.111276
O      11.71381      2.00147     16.10363         0.559733     -0.721951     -0.039930
O      11.57186     13.60732      2.68336         1.054053     -0.344904      0.485971
O      11.70620     13.71642     15.85083         0.215722     -0.520590      0.270712
O      11.76743      1.88348      7.10921        -0.780093      0.309032      0.165433
O      11.62073     13.59008      6.96280         0.872241      0.476174      0.578353
O      11.63223      2.06257     11.47436         1.620831     -0.204432      0.497925
O      11.69950     13.64153     11.36370        -0.503316      0.307051      0.663669
O      11.67813      5.77423      2.70066         0.335915     -0.044318      0.358946
O      11.76821      5.74730     15.94504         0.170142      0.384727      0.232200
O      11.64256      5.80639      7.23143         0.411059      0.510458     -0.256155
O      11.69546      5.80272     11.56821         0.181166     -0.043441     -0.289215
O      11.77879      9.67876      2.73538        -0.943255      0.485785      0.160073
O      11.67332      9.69449     16.01241         0.259436      0.193704      0.071450
O      11.65446      9.81000      7.30922        -0.385525     -0.615719     -0.560765
O      11.64965      9.70403     11.71411         0.944324      0.252359     -0.492319
O       1.97924      3.82455      2.87024        -0.284597      0.450423     -0.160806
O       1.92544      3.80280     15.95483         0.368690      1.524475      0.162416
O       1.94910     15.46890      2.67632         0.669403      0.643004      0.454073
O       1.97995     15.53341     15.98926        -0.348449      0.192674      0.062941
O      13.81556      3.77396      2.86470        -0.993068      0.652198      0.108185
O      13.61547      3.88547     15.88544         0.619397     -0.207985      0.343089
O      13.53648     15.51663      2.75791         0.172669     -0.436860     -0.304481
O      13.75346     15.54490     15.86923        -0.276846      0.218186      0.194944
O       1.79454      3.82770      7.06933         0.440588      0.335310      0.339367
O       1.74414     15.55648      7.23395         0.575869      0.134575     -0.275529
O      13.62872      3.88781      7.00132        -0.151815      0.022705     -0.005584
O      13.58601      0.00924      7.03516         0.281513     -0.704088      0.592451
O       2.06171      3.89019     11.47823        -0.095464     -0.519727      0.352701
O       2.11233      0.01195     11.50587        -0.909752     -1.043467      0.092643
O      13.63018      3.97706     11.46590         0.391125     -0.960956      0.327556
O      13.71552     15.58244     11.53886        -0.487875      0.576129      0.634694
O       1.90088      7.72595      2.76677         0.142744      0.846588      0.114674
O       1.88249      7.73080     15.80982         0.474744     -0.025452      0.364652
O      13.72475      7.73376      2.65756        -0.526498      0.151601      0.133651
O      13.60539      7.83064     16.01790         0.301183     -0.604385     -0.297745
O       1.99952      7.83525      7.13307        -0.151223     -0.449741      0.703270
O      13.58835      7.77197      7.06409        -0.287625      0.382657      0.308518
O       2.03067      7.83631     11.61487        -0.403627     -0.818279      0.169483
O      13.67335      7.74084     11.60561        -0.206600      0.259878     -0.140194
O       1.91548     11.71492      2.70385         0.173911     -0.898679      0.184752
O       1.87597     11.63126     15.81945         0.593230      0.031951      0.704511
O      13.74248     11.71530      2.80205        -0.834355      0.004944     -0.216166
O      13.53764     11.62711     15.99781         0.548562      1.190612     -0.270404
O       1.90416     11.73040      7.28185         0.462159     -0.035516      0.284531
O      13.58751     11.65878      7.14738        -0.064444      0.804141      0.571875
O       1.93063     11.63777     11.58213         0.220729      1.233062     -0.428580
O      13.66099     11.65981     11.46879        -0.247689      0.255678      0.355609
O       5.88787      3.94774      2.81317         0.047218     -0.988473     -0.541575
O       5.85983      3.80668     15.96400         0.014235      1.170284      0.496781
O       5.81328     15.59124      2.65709         0.151912     -0.772372      0.097032
O       5.72019     15.51394     16.17103         0.687522      0.277673     -0.409697
O       5.88845      3.89704      7.18425        -0.284940     -0.353040      0.000682
O       5.89669      0.01185      7.17818        -0.221348      0.142076      0.400266
O       5.95473      3.89142     11.56504        -0.292066      0.056674      0.064438
O       5.83036     15.59488     11.54991         0.082397     -0.750120     -0.262549
O       5.83470      7.75514      2.86897        -0.392748      0.388405     -0.090506
O       5.87418      7.73697     15.87417        -0.283022     -0.469724      0.270553
O       5.71118      7.67694      7.20272         0.697556      1.266289     -0.029189
O       5.93313      7.77450     11.70312        -0.309682      0.304330     -0.624960
O       5.76425     11.53584      2.65425         0.159230      1.243825      0.800154
O       5.91317     11.60930     15.92176         0.036252     -0.249595      0.340390
O       5.72633     11.77707      7.22749         0.132742     -0.482736      0.067016
O       5.98686     11.56980     11.59088        -0.227372      1.432044     -0.441085
O       9.56796      3.88416      2.60708         0.483937      0.165678      0.572024
O       9.82483      3.85413     16.02022        -0.639073     -0.208509      0.528794
O       9.82969     15.50990      2.68550        -0.442208     -0.000927      0.297616
O       9.82830     15.57082     15.99186        -0.276941      0.369901      0.263023
O       9.84853      3.95043      7.10184        -0.596567     -1.059149      0.387065
O       9.63336     15.56510      7.01122         0.428229      0.247441      0.522873
O       9.64851      3.90004     11.53660         0.231279      0.297304     -0.299346
O       9.78407      0.15051     11.54729         0.209868     -1.853351      0.261737
O       9.81139      7.88325      2.74268        -0.065857     -1.164323      0.566970
O       9.83704      7.69557     15.97102         0.149901      0.313042     -0.183751
O       9.68025      7.80766      7.08765         0.234234      0.329625      0.392055
O       9.78708      7.73249     11.53894         0.570769      0.464154     -0.147624
O       9.81823     11.63530      2.61668        -0.429032     -0.420624      0.371516
O       9.73851     11.69325     15.87277         0.000354     -0.412244      0.323126
O       9.74948     11.75689      7.31349        -0.456071     -0.905639     -0.253034
O       9.70066     11.72415     11.44442         0.614102      0.068332      0.308693
