  # total energy = -7879.26739789 
CRSYTAL
PRIMVEC
    15.2000000000000000    0.0000000000000000    0.0000000000000000
     0.0000000000000000   15.2000000000000000    0.0000000000000000
     0.0000000000000000    0.0000000000000000    17.000000000000000
PRESSURE
7.42976 7.43692 1.20538 0.057871 0.118382 0.013559
PRIMCOORD
320 1
Pb       3.78437      3.69205      4.12671        -0.288667      0.420496      0.504693
Pb       3.89844      3.80529     16.92482        -0.599325      0.300303     -0.122219
Pb       3.70269      0.03284      4.23795        -0.044421     -0.232273      0.183626
Pb       3.72179     15.18460     16.95592         0.136903      0.113884      0.073960
Pb       0.02927      3.77217      4.22768        -0.257712      0.223712     -0.245510
Pb      15.17945      3.69402      0.08688        -0.332304      0.341885      0.010441
Pb      15.19183      0.04618      4.31884         0.575645     -0.175364     -0.391815
Pb      15.04701     15.16406      0.04790         0.366407     -0.068247      0.109945
Pb       3.95978      3.80860      8.53118        -0.533029     -0.090667     -0.038253
Pb       3.78263     15.04780      8.70299        -0.015680      0.673499     -1.033886
Pb       0.16021      3.78188      8.50740        -1.120723     -0.118161      0.266703
Pb      15.14707     15.04498      8.45319         0.460677      0.601310      0.099388
Pb       3.71728      3.82433     12.70550         0.109333      0.243014      0.011968
Pb       3.58923      0.07592     12.80328         0.674587     -0.143848      0.005896
Pb      15.11248      3.86927     12.66362         0.004099     -0.286864      0.137262
Pb      15.18619      0.16412     12.83235        -0.152401     -0.176561     -0.369432
Pb       3.78868      7.46955      4.17721         0.711214      0.152799      0.794994
Pb       3.80851      7.53466     16.92100         0.030429      0.350074      0.917461
Pb       0.00492      7.63746      4.19376        -0.585537     -0.619857      0.384882
Pb      15.05490      7.55423     16.92682         0.168657      0.026155      0.275254
Pb       3.86710      7.68646      8.43969        -0.043131     -0.580862      0.147160
Pb       0.08131      7.53682      8.38651        -0.648925      0.118172      0.272310
Pb       3.73256      7.57895     12.67590         0.154419      0.057924      0.508133
Pb       0.01826      7.61663     12.61872        -0.144981      0.202694      0.460776
Pb       3.70453     11.22076      4.23284         0.447848      0.076563     -0.399122
Pb       3.83699     11.31362      0.24340        -0.354601      0.285382     -0.987611
Pb       0.07215     11.37301      4.17574        -0.343876     -0.280346      0.428721
Pb      15.17782     11.38814      0.09577         0.393213      0.049240     -0.381770
Pb       3.86062     11.34112      8.56985         0.165444      0.147796     -0.164197
Pb       0.01315     11.41605      8.39567         0.030941     -0.052123      0.422229
Pb       3.63738     11.34412     12.87454         0.383691     -0.081804     -0.554712
Pb      15.19410     11.33564     12.87788         0.309102     -0.061336     -0.884214
Pb       7.48533      3.63966      4.24304         0.292706      0.421044      0.244714
Pb       7.54053      3.71249     16.85051         0.182409      0.537629      0.712015
Pb       7.59650     15.07539      4.27357        -0.360425      0.146266      0.122511
Pb       7.64716     15.14091     16.94551        -0.204569      0.008913      0.072704
Pb       7.55348      3.77976      8.61771        -0.215368      0.029646     -0.461722
Pb       7.66181     15.16620      8.43053        -0.398344     -0.161933      0.704817
Pb       7.61562      3.92133     12.80002        -0.358300     -0.260834     -0.222117
Pb       7.58885     15.18743     12.75455         0.226991      0.187662      0.056076
Pb       7.70965      7.46042      4.23195        -0.650319      0.445765     -0.123802
Pb       7.54967      7.72660     16.90552         0.744853     -0.831999      0.555567
Pb       7.55918      7.60912      8.49046        -0.341386     -0.010338     -0.170312
Pb       7.52626      7.66232     12.71593        -0.305007     -0.121418      0.514712
Pb       7.56764     11.24912      4.36889        -0.129635      0.163937     -0.832562
Pb       7.69142     11.42114     16.87656        -0.103913      0.221240      0.408680
Pb       7.65087     11.42389      8.59551        -0.648339     -0.066340     -0.400419
Pb       7.54655     11.35218     12.70679        -0.182584     -0.058768      0.267625
Pb      11.26187      3.73469      4.33597         0.123376      0.192737     -0.336383
Pb      11.29260      3.63583      0.00948         0.308080      0.317653      0.187868
Pb      11.36259     15.13941      4.26097        -0.206095      0.151682      0.201902
Pb      11.38727     15.17099      0.02503         0.027732      0.205832     -0.316696
Pb      11.42986      3.87590      8.52498         0.353789     -0.804327     -0.433696
Pb      11.43824      0.02866      8.23633         0.212817      0.249257      0.965514
Pb      11.32617      3.83925     12.75887        -0.081666     -0.072651      0.393286
Pb      11.47152      0.01396     12.58219        -0.387082     -0.033157      1.143898
Pb      11.34784      7.62744      4.24813         0.412279     -0.545404     -0.199840
Pb      11.29691      7.53012     16.92199         0.157591      0.289527      0.259643
Pb      11.31737      7.52880      8.52116         0.502514      0.239367     -0.212370
Pb      11.40748      7.62404     12.71485        -0.300501     -0.112495     -0.047997
Pb      11.27517     11.20324      4.29503         0.363906      0.433392     -0.250233
Pb      11.35686     11.57192     16.92093        -0.066893     -0.771929     -0.125707
Pb      11.49927     11.41694      8.44907        -0.039329     -0.097473      0.094531
Pb      11.40367     11.56324     12.55952         0.061359     -0.737687      0.539241
Ti       1.87771      1.92341      2.11257        -1.311335     -0.556153     -0.418759
Ti       1.82722      1.91007     15.01558         0.860828      0.894949     -0.806851
Ti       1.85532     13.24465      2.30846         0.708005      0.841824     -0.708693
Ti       1.89013     13.32579     15.02291        -0.111419     -0.853324      0.522835
Ti      13.22656      1.79704      2.31057         0.712090      1.291671     -0.005933
Ti      13.28739      1.93254     15.02230        -1.307806     -0.611617     -0.314209
Ti      13.28792     13.22135      2.34683         0.126343      0.723962     -0.561000
Ti      13.37224     13.25317     14.95533        -0.312084      1.362072      0.260993
Ti       1.82786      1.87541      6.62344         1.671297     -0.872979     -1.182983
Ti       1.95159     13.23956      6.43211        -0.291758      1.555094     -0.799020
Ti      13.34954      1.87362      6.35363        -0.588453      1.075402     -0.008034
Ti      13.32840     13.24802      6.43140         0.340893     -0.145410     -0.491131
Ti       1.87621      1.89477     10.75427        -0.462648      0.233500      0.251265
Ti       1.86556     13.27259     10.79388         0.352255     -0.284740      0.622876
Ti      13.22211      1.90543     10.74117         1.654500      0.902834     -2.039523
Ti      13.38121     13.33285     10.73266         0.326963     -0.751696     -1.009284
Ti       1.85476      5.67441      2.17412        -0.245687      0.034607     -0.528104
Ti       1.75015      5.74582     15.04457         1.147748     -0.514216      0.108031
Ti      13.23684      5.64419      2.26192        -0.009409      0.217883     -0.103047
Ti      13.16867      5.69957     14.97730         0.505995     -0.845951      0.198933
Ti       1.84165      5.62430      6.49710         1.197868      0.639527     -0.801289
Ti      13.18913      5.68777      6.47907         0.980496     -0.159618     -0.845929
Ti       1.80553      5.71728     10.70074         1.278817     -0.118443     -0.702025
Ti      13.16895      5.68249     10.71528         0.354391     -0.273349     -1.258054
Ti       1.93427      9.29530      2.08479        -0.281541      1.439487      0.057881
Ti       1.89827      9.49223     15.07818         0.368686      0.474951     -0.915619
Ti      13.32677      9.44451      2.14718        -0.611849     -0.790293      0.367550
Ti      13.28516      9.49965     14.92964        -0.428738     -0.427476      1.003888
Ti       1.88460      9.49835      6.45610         0.393496     -0.633251      0.114964
Ti      13.30347      9.45450      6.46950         0.340411     -0.277314     -0.862822
Ti       1.80646      9.47803     10.60456         0.802570      1.164309      0.140134
Ti      13.25921      9.45574     10.65114         0.508256      0.375694     -0.806588
Ti       5.64500      1.85149      2.12832         0.244267     -0.348315     -0.394053
Ti       5.68611      1.90695     14.89783        -0.562967     -0.219954     -0.520443
Ti       5.61518     13.28541      2.20284         0.813843     -0.164255      0.162517
Ti       5.68557     13.31816     15.04933         0.237230      0.148682     -0.787366
Ti       5.66178      1.86238      6.55855        -0.786439     -0.262227      0.076940
Ti       5.65586     13.34404      6.47557         0.413955     -0.740518     -0.578356
Ti       5.73737      1.86625     10.84582        -0.330305      0.817875     -0.649084
Ti       5.65157     13.28521     10.93113        -0.497155     -1.112377     -0.180669
Ti       5.70333      5.69412      2.23143        -0.570121      0.085513     -1.410492
Ti       5.67104      5.76611     15.02269        -0.266374     -0.004080     -0.321953
Ti       5.63289      5.68009      6.42707        -0.284452      0.437177      1.221624
Ti       5.65040      5.72551     10.66885        -0.712727     -0.519688     -0.367855
Ti       5.76475      9.50735      2.18193         0.259821     -0.160700      1.434746
Ti       5.73849      9.56404     15.01489        -1.185829     -0.710800     -0.934385
Ti       5.71159      9.55411      6.47799        -0.277961     -0.282621     -0.604710
Ti       5.60669      9.48779     10.77087         0.503133      0.069988     -0.034297
Ti       9.36269      1.85271      2.26805         0.565120      0.938851     -1.148805
Ti       9.44042      1.86739     14.91670         1.002423      0.107158      0.094065
Ti       9.49080     13.26400      2.34223        -0.822204     -0.087259     -0.649752
Ti       9.54446     13.33184     14.87957        -0.370081     -0.046383     -0.000958
Ti       9.40550      1.88628      6.53102         1.690012      0.391934     -0.596869
Ti       9.51447     13.21639      6.52455        -0.528997      0.463582     -0.128236
Ti       9.53825      1.92037     10.73977        -0.682950     -0.382904     -0.093085
Ti       9.48202     13.30859     10.68840         0.401361      1.027206     -0.790415
Ti       9.48327      5.68109      2.19590        -0.010143     -0.920113     -0.358422
Ti       9.47424      5.62874     14.99863        -0.527755      0.884664     -1.489751
Ti       9.38884      5.64420      6.52855        -0.401433     -0.227124      0.396476
Ti       9.37037      5.75738     10.69742         0.689437      0.189698      0.046395
Ti       9.50835      9.48319      2.06567        -0.918385      0.263097     -0.247198
Ti       9.50406      9.49517     14.84635         0.892959     -0.123371      0.746774
Ti       9.50533      9.42731      6.52303        -0.580385      0.356796      0.494955
Ti       9.49830      9.49576     10.74031        -0.915288     -0.281121     -0.354858
O       1.86906      2.09836      0.30896         0.054751     -0.665480     -0.125949
O       1.86667      1.86784     13.14021        -0.431165     -0.037090      0.975010
O       1.82594     13.28847      0.51494         0.370150      0.075242      0.247698
O       1.75947     13.28534     13.21002         0.330336      0.127549      1.120830
O      13.31370      1.80619      0.49149        -0.322156     -0.024154     -0.044901
O      13.18801      1.80801     13.24166         0.588248      0.526767     -0.287490
O      13.28043     13.41139      0.47865        -0.096369     -0.471183      1.370222
O      13.41113     13.21700     13.16853        -0.152019      0.147893     -0.049145
O       1.88001      1.89013      4.77398        -0.114075      0.268147      0.584906
O       1.96468     13.42531      4.58709        -0.236705     -1.058036      1.579685
O      13.57352      1.87312      4.51247        -0.885247      0.394792      1.325213
O      13.39165     13.11788      4.67359        -0.282686      0.225137     -0.361633
O       1.90702      1.83280      8.98826        -0.089644      0.201226     -0.337839
O       1.82281     13.28691      9.03271         0.331912      0.172748     -0.962496
O      13.18202      2.03231      8.93541         0.032303     -0.237047      0.569331
O      13.44127     13.32478      8.90192        -0.435164     -0.353378      0.485059
O       1.85699      5.76539      0.36687        -0.217484     -0.323550      0.371573
O       1.94984      5.88593     13.26445        -0.634806     -0.470509     -0.150550
O      13.12212      5.74836      0.46397         0.438599     -0.217133      0.507471
O      13.24527      5.59184     13.19827        -0.373451      0.533336     -0.501976
O       1.94949      5.61714      4.66824        -0.311162      0.172615      1.146557
O      13.31896      5.79583      4.68257        -0.332547     -0.448006      0.663614
O       1.94665      5.59296      8.93095        -0.585879      0.247536      0.177243
O      13.15500      5.58503      8.86141         0.056788      0.277588      1.118794
O       1.84723      9.44222      0.28334         0.101433     -0.033093      1.181103
O       1.96260      9.46310     13.21624        -0.356693      0.272679      0.801219
O      13.39450      9.45351      0.35938        -0.505390     -0.001161      0.750377
O      13.26159      9.45875     13.15771        -0.133979      0.156145      0.185623
O       1.81690      9.45986      4.61928         0.531478      0.018083      0.968429
O      13.42468      9.49768      4.61482        -0.637084     -0.022972      0.952556
O       1.90298      9.47552      8.79134        -0.439117      0.385461      1.369366
O      13.28080      9.35909      8.84174        -0.031518      0.703961      0.760708
O       5.73682      1.99541      0.31635        -0.139511     -0.552667      1.004508
O       5.67552      1.94280     13.08727        -0.045099     -0.220757      0.420419
O       5.67502     13.31587      0.38486        -0.067029     -0.302073      0.584475
O       5.69076     13.28073     13.25198         0.149616      0.155175      0.090977
O       5.67398      1.76754      4.77469        -0.055385      0.270823      0.008814
O       5.71936     13.46670      4.69955        -0.190767     -0.632728      0.100980
O       5.73411      1.88443      9.00883         0.093300      0.084816      0.785096
O       5.67408     12.98414      9.17129        -0.173660      0.991138     -0.037295
O       5.63607      5.65984      0.34480         0.596499     -0.137901      2.285087
O       5.60820      5.94109     13.24092         0.058321     -0.789034      0.063282
O       5.64515      5.71119      4.67046        -0.052505     -0.226585     -0.849151
O       5.64174      5.64947      8.84489         0.219219      0.076281      0.996983
O       5.79410      9.61450      0.42713         0.200467     -0.108162     -0.571073
O       5.71762      9.37342     13.20154        -0.214450      0.336637      0.725152
O       5.72883      9.60192      4.65524        -0.140001     -0.025494      0.553983
O       5.63535      9.60548      8.95707         0.185175     -0.109027      0.289761
O       9.32735      1.78819      0.41459         0.259045      0.189276      1.070470
O       9.53546      1.94846     13.13827        -0.159864      0.203770      0.067539
O       9.61340     13.33111      0.52582        -0.243949     -0.012292      0.114837
O       9.59550     13.31277     13.13398        -0.198612     -0.101025     -0.784773
O       9.36270      2.07106      4.73373         0.338659     -0.543476      0.303165
O       9.56828     13.19580      4.72255        -0.250732     -0.026799     -0.028847
O       9.41806      1.73261      8.94866         0.589714      0.378311      0.337826
O       9.45240     13.46717      8.83584         0.394099     -0.674929      1.518520
O       9.51522      5.67004      0.40198        -0.175512      0.066951      0.589731
O       9.49040      5.51980     13.10822        -0.060499      0.442819      1.077700
O       9.44801      5.59141      4.76274        -0.195680      0.181432     -0.605084
O       9.37326      5.97713      8.87193         0.087791     -0.990210      0.948407
O       9.50553      9.44634      0.26215        -0.285756      0.457505      0.919211
O       9.45781      9.58471     13.06639         0.428335     -0.133700      0.155653
O       9.60691      9.49174      4.73258        -0.644042      0.256635      0.180150
O       9.37469      9.40070      8.93627         0.436656      0.028927      0.126216
O       3.69478      2.02812      2.41080         2.292853     -0.112861      0.449821
O       3.77426      1.73657     15.19411         0.452039      0.256834      0.355736
O       3.73085     13.11734      2.67313         1.026122      0.037999     -0.551195
O       3.80957     13.33183     15.48935        -0.707627      0.192550     -0.626275
O       0.02985      1.86728      2.40149        -0.675648     -0.251743      0.489038
O      15.15329      1.98632     15.31245         0.559245      0.154558      0.072279
O       0.03510     13.37049      2.69488        -1.048397     -0.348492     -0.332729
O       0.02067     13.21807     15.51376        -0.372191      0.391949     -0.689317
O       3.82380      1.78789      6.95384        -0.143840      0.384693     -0.019360
O       3.78214     13.31082      6.81470        -0.291106     -0.060110      0.497664
O      15.17909      1.84997      6.95445        -0.130662      0.512437     -0.197824
O       0.02701     13.25903      6.82443         0.324449     -0.015745      0.014311
O       3.70134      1.87223     11.13027         1.092282      0.046214      0.040632
O       3.74838     13.25105     11.26655         0.284307      0.499534     -0.322326
O      15.14715      2.01359     11.06321        -0.093505      0.078007      0.464751
O       0.03744     13.20943     11.07693        -1.433847      0.113400      0.349096
O       3.73261      5.58629      2.60406         1.627644     -0.241102     -0.165239
O       3.80749      5.81846     15.53378        -0.799533     -0.512715     -1.441243
O      15.18577      5.81990      2.56642        -0.186956      0.348866     -0.195859
O      15.07677      5.62509     15.35266         1.020466     -0.133183     -0.125613
O       3.75991      5.70758      6.81943         0.132437     -0.431609     -0.001771
O      15.14862      5.61781      6.88476         0.574782      0.410614     -0.137029
O       3.76156      5.77689     11.03583        -0.543745     -0.011612      0.231856
O      15.11432      5.62285     11.04505        -0.277186      0.217628      0.054731
O       3.84523      9.51768      2.48985        -0.141514      0.267902     -0.055022
O       3.88908      9.40914     15.47724        -0.877271      0.558366     -0.519500
O       0.00724      9.14162      2.44109         0.092403      0.597854     -0.336767
O      15.18241      9.47836     15.25334        -0.835218      0.361534     -0.037459
O       3.77210      9.55654      6.80363        -0.038790     -0.082451     -0.198985
O      15.19712      9.46023      6.75023         0.361364     -0.171772      0.363066
O       3.75379      9.36123     11.05248        -0.786106      0.420430     -0.293448
O      15.14017      9.56096     11.10619         0.367814     -0.102695     -0.226720
O       7.53556      1.74395      2.72927        -0.801912     -0.144611     -0.647759
O       7.58221      1.98213     15.28824        -0.137978      0.293310     -0.350521
O       7.59530     13.43626      2.59687        -0.109283     -0.061001     -0.139337
O       7.65741     13.21874     15.36783        -0.371295     -0.055877     -0.120559
O       7.63136      1.81031      6.94605        -0.955744      0.069794     -0.228557
O       7.55946     13.22872      6.83653         0.878390      0.254851     -0.028946
O       7.62304      2.00346     11.21545        -0.264392     -0.505078     -0.541014
O       7.66303     13.31946     11.16662        -0.706697     -0.304658     -0.195311
O       7.48924      5.65842      2.69701         1.603818      0.260560     -0.424046
O       7.58092      5.69396     15.27637         0.513575     -0.512946      0.148630
O       7.47024      5.65708      6.86279         1.250375      0.142530     -0.037259
O       7.52346      5.56171     11.06261         0.081653      0.478278     -0.031627
O       7.65449      9.45120      2.58889        -0.109080     -0.210659      0.110993
O       7.63190      9.50932     15.25776         0.195055      0.420373      0.238857
O       7.57789      9.59611      6.73698         0.385836     -0.002188      0.290581
O       7.55939      9.51870     11.16223        -0.105747      0.551257     -0.453294
O      11.35645      1.92640      2.58610        -0.035736      0.091744      0.201361
O      11.33051      1.72132     15.40936         0.238889      0.315962     -0.007647
O      11.40854     13.28361      2.73438         0.392047     -0.488717     -0.340282
O      11.40027     13.43567     15.30125         0.725137     -0.133667      0.238597
O      11.45241      1.90543      6.70655        -0.227917     -0.400424     -0.010624
O      11.46621     13.28249      6.83064        -0.200260     -0.428300      0.058991
O      11.45770      1.91872     11.19092        -2.511640     -0.349337     -0.353965
O      11.46156     13.36052     11.01205        -0.627321     -0.112558     -0.079469
O      11.33063      5.50364      2.71476        -0.410178      0.418347     -0.357973
O      11.32999      5.66565     15.40056         0.252440      0.330263     -0.341713
O      11.30243      5.69066      6.80771         0.203464      0.228955      0.233602
O      11.29058      5.90448     11.01447        -0.085764     -0.297909     -0.030974
O      11.27908      9.55317      2.57586         2.090229      0.336221     -0.149999
O      11.33826      9.39331     15.40955         1.288692      0.562205     -0.938769
O      11.40445      9.39141      6.79267        -0.385970      0.680978      0.166691
O      11.38830      9.42233     11.02483        -0.438538     -0.254260      0.082892
O       1.75027      3.83656      2.47864         0.210494     -0.497112      0.437919
O       2.04137      3.80685     15.18980        -0.406980      0.428861      0.178569
O       1.96090      0.04943      2.62216         0.129838     -0.396780     -0.677670
O       1.84129      0.02591     15.42875        -0.302881     -0.655426     -0.380804
O      13.41509      3.80085      2.57715        -0.206829     -0.531853     -0.026521
O      13.12971      3.77188     15.36711         0.131006      0.047114      0.166669
O      13.26450     15.15704      2.79211         0.069118     -0.462441     -0.700843
O      13.44154      0.01324     15.30150        -0.151881     -0.870474      0.183097
O       1.92180      3.76268      6.89239        -0.084314      0.185628      0.020676
O       1.90612     15.19874      6.90082        -0.193801     -1.056109      0.090315
O      13.24388      3.75797      6.70224         0.151155      0.331947      0.009433
O      13.43451     15.17037      6.57726        -0.571852      0.079148      0.565587
O       1.83590      3.90563     11.12340         0.363159     -1.345242      0.245352
O       1.82856     15.19938     11.19164        -0.139944      0.091017     -0.337317
O      13.02062      3.82866     11.13576         1.056452      0.441230     -0.194556
O      13.35630      0.04197     10.95551         0.114938     -0.987376      0.566074
O       2.14283      7.53028      2.66812        -1.182678      0.292756     -0.834434
O       1.81427      7.67904     15.34320         0.086751     -1.860938      0.177348
O      13.06011      7.57027      2.67927         0.422130      0.661312     -0.736309
O      13.30091      7.54063     15.30945        -0.367430      1.046295     -0.270775
O       2.01458      7.57115      7.06874        -1.160753      0.036208     -1.745806
O      13.26374      7.59102      6.83292         0.253493     -0.376818     -0.060025
O       1.74117      7.65426     10.98648        -0.034986     -0.786526      0.047284
O      13.31350      7.55054     11.02275         0.011135      0.535098      0.404021
O       1.86054     11.23320      2.45745        -0.505281      0.383663      0.277100
O       1.82882     11.41193     15.41849         0.711715      0.138000     -0.299373
O      13.53477     11.33678      2.56474        -0.662637     -0.135663     -0.593990
O      13.28872     11.43173     15.39681        -0.372040     -0.775481     -0.326664
O       1.87919     11.41145      6.85297        -0.040418     -0.466619     -0.558927
O      13.34007     11.37237      6.80018        -0.353832     -0.587278      0.522904
O       1.92664     11.38752     11.15157        -0.075089     -0.985367     -0.101953
O      13.20768     11.35637     11.01400         0.143049      0.489019     -0.186051
O       5.80570      3.67042      2.55020        -0.713499      0.866820      0.002399
O       5.63492      3.82803     15.22553        -0.101384     -0.313609      0.030334
O       5.50169     15.12791      2.53292         0.047213      1.303708     -0.212375
O       5.87215      0.04430     15.27229        -0.412636     -0.594758      0.150421
O       5.72160      3.78008      6.85294        -0.150322     -0.712318     -0.076246
O       5.69871     15.13435      7.00647         0.018751      0.357922      0.118443
O       5.55514      3.81308     11.02583         0.105868     -0.274226      0.249923
O       5.64154     15.15303     11.10048         0.238326      0.668423      0.021543
O       5.75198      7.59229      2.59336        -0.489901     -0.387083     -0.295047
O       5.81159      7.61810     15.51107        -0.571939      0.568074     -0.635038
O       5.65244      7.62916      6.84016         0.187370      0.245337     -0.248346
O       5.70623      7.55181     11.04773         0.459662      0.713906     -0.154558
O       5.86018     11.41112      2.56995        -0.493125     -0.125537      0.080864
O       5.64698     11.41518     15.27845         0.341979     -0.124232      0.365945
O       5.63076     11.42185      6.94867         0.138687      0.080143     -0.530002
O       5.57196     11.29968     11.27981         0.352353      0.819723      0.121720
O       9.33816      3.76285      2.51540         0.017071      0.066160      0.246070
O       9.61085      3.78156     15.34766        -0.620160     -0.668501     -0.070801
O       9.53505      0.06000      2.68808         0.372934     -1.463467      0.292863
O       9.29304      0.02313     15.19870         0.334945     -0.781326      0.236574
O       9.48772      3.77018      6.90558        -0.316066     -0.074665      0.371997
O       9.67574     15.13437      6.75653        -1.169718      0.682321     -0.290040
O       9.45515      3.85899     10.91040         0.727212     -0.556181     -0.017716
O       9.51985      0.03903     11.19766        -0.160288     -0.280621     -0.534297
O       9.56363      7.59125      2.49854        -0.340784     -0.606501      0.337659
O       9.50232      7.55625     15.17466        -0.236264      0.309202      0.036055
O       9.32593      7.57771      6.80578         0.320425      0.342636     -0.201103
O       9.26559      7.65397     11.16774         0.931105     -0.886363     -0.414807
O       9.38466     11.38458      2.53571         0.394919      0.155691      0.117133
O       9.64388     11.43124     15.20496        -0.306299     -0.306755      0.454905
O       9.50232     11.39670      7.01389         0.620221     -0.603103     -0.473582
O       9.54055     11.42353     10.92700         0.087091      0.338892      0.094669
