  # total energy = -7883.23055772 
CRSYTAL
PRIMVEC
    15.3600000000000000    0.0000000000000000    0.0000000000000000
     0.0000000000000000   15.3600000000000000    0.0000000000000000
     0.0000000000000000    0.0000000000000000    17.440000000000000
PRESSURE
2.71939 2.53024 2.72848 -0.361034 -0.436943 0.039404
PRIMCOORD
320 1
Pb       3.80468      3.84697      4.37542        -0.111422     -0.113520     -0.062925
Pb       3.95332      3.81531     17.34119        -0.718152     -0.320091      0.435840
Pb       3.82274     15.34414      4.32129        -0.169019     -0.091263      0.453300
Pb       3.89524      0.02792     17.39574        -0.033222     -0.183079      0.288692
Pb      15.31384      3.82913      4.38416         0.373472     -0.108004      0.219210
Pb       0.06939      3.83291      0.02443        -0.149702      0.211767     -0.051413
Pb       0.01597     15.31535      4.31596         0.089622     -0.010337      0.189974
Pb      15.16403     15.32456     17.41367         0.928505     -0.157499      0.880479
Pb       3.78769      3.91316      8.57021         0.080563      0.042716      0.426369
Pb       3.82355     15.32613      8.79261        -0.021031      0.222928     -0.361241
Pb      15.12466      3.87004      8.60257         0.591632      0.152248      1.151778
Pb      15.29045      0.12701      8.65806         0.482396     -0.391653      0.621195
Pb       3.87738      3.77280     12.95285        -0.212568      0.230087      1.020672
Pb       3.78962     15.24792     12.99006        -0.022383      0.333290     -0.021676
Pb      15.31529      3.72323     13.08177         0.442712      0.404005      0.114035
Pb      15.35267      0.03528     12.92853         0.348879     -0.829119      0.754508
Pb       3.89644      7.70047      4.26935        -0.213710     -0.355592      0.038903
Pb       3.74548      7.66827      0.02183         0.070356     -0.129774     -0.239333
Pb       0.13640      7.67439      4.29528        -0.381958     -0.122817      0.484288
Pb      15.34625      7.78555     17.33447        -0.118275     -0.790720      0.354775
Pb       3.93882      7.61243      8.68578        -0.674174      0.443667      0.110083
Pb      15.33343      7.62787      8.66902         0.047538      0.417034      0.095814
Pb       3.83162      7.65733     13.06211        -0.452955     -0.002144      0.147540
Pb       0.04314      7.69185     13.06279         0.179906     -0.193268      0.275513
Pb       3.70324     11.47441      4.30105        -0.026772      0.035970      0.409327
Pb       3.96483     11.35072     17.32315        -0.667906      0.651863      0.570307
Pb       0.11619     11.61863      4.18423        -0.246716     -0.408288      0.993005
Pb      15.30672     11.46091     17.34432         0.010262      0.384322     -0.109590
Pb       3.78999     11.58806      8.70252         0.256088     -0.708867      0.208218
Pb       0.00045     11.39466      8.64749        -0.269195      0.317411      0.341952
Pb       3.94551     11.51965     12.99549        -0.905590     -0.520170      0.110536
Pb       0.06915     11.48181     13.11016         0.223066      0.071813     -0.049268
Pb       7.67449      3.73630      4.37702         0.237594      0.345951     -0.165649
Pb       7.73431      3.90437     17.25793        -1.189094     -0.621288      1.697896
Pb       7.67023      0.05900      4.30246        -0.142379     -0.874527      0.232761
Pb       7.47640     15.34862     17.32370         0.615230     -0.310806      1.018345
Pb       7.65821      3.81595      8.67097         0.024609      0.296921      0.709077
Pb       7.69210     15.27930      8.62383        -0.337311     -0.151517      0.301182
Pb       7.78801      3.92531     13.19807        -0.624448      0.039149     -0.396253
Pb       7.71809      0.09172     13.01947        -0.879778     -0.422638      0.184675
Pb       7.56779      7.58168      4.26726         0.162858     -0.007315      0.550864
Pb       7.66497      7.63643     17.42103        -0.451179      0.314525     -0.484296
Pb       7.60665      7.80581      8.61728         0.422094     -0.569661      0.741990
Pb       7.63714      7.62847     12.99583         0.216182     -0.251291      0.462622
Pb       7.65306     11.43076      4.32835         0.453963      0.270961      0.370754
Pb       7.60538     11.61555     17.30379        -0.307883     -0.690382      1.020723
Pb       7.73057     11.47338      8.68234        -0.823420      0.483117      0.359792
Pb       7.83652     11.62890     13.06776        -0.928644     -0.825877     -0.157503
Pb      11.57910      3.75472      4.34519        -0.438213      0.580146      0.265724
Pb      11.51438      3.83040      0.00324         0.016928     -0.289734      0.114877
Pb      11.54713      0.03347      4.22943        -0.037019     -0.703498      1.190390
Pb      11.45903     15.32647     17.22671        -0.516331     -0.270271      1.105623
Pb      11.57430      3.99986      8.65601        -0.422256     -0.694843      0.534550
Pb      11.50379     15.28105      8.62931        -0.600471      0.575814      0.813200
Pb      11.52616      3.74292     13.17850        -0.286873      0.022197      0.182331
Pb      11.41841     15.33356     13.00907         0.742919      0.267871      0.911907
Pb      11.57195      7.69389      4.22243        -0.401147     -0.256174      1.173867
Pb      11.43290      7.59903     17.43223         0.094740      0.343684     -0.090934
Pb      11.55190      7.65955      8.64812        -0.315993      0.386776      0.239555
Pb      11.43869      7.70402     12.98459        -0.466608     -0.262567      0.654268
Pb      11.55715     11.41512      4.37292        -0.407560     -0.023862      0.131946
Pb      11.41521     11.48790     17.36398         0.026621      0.325958      0.062610
Pb      11.48852     11.50951      8.79291        -0.040127     -0.246895     -0.161693
Pb      11.48948     11.48734     12.94882        -0.234408     -0.455449      0.647991
Ti       1.99877      1.88963      2.35391        -0.278952      0.356233     -0.118610
Ti       1.98634      1.87163     15.37290        -0.018082      0.375960      3.006184
Ti       1.92814     13.51781      2.19561        -0.661464     -0.928789      0.057416
Ti       1.86290     13.50517     15.50757         0.418235     -1.366167     -1.771338
Ti      13.55297      1.90977      2.43441        -0.386038     -0.103389     -0.212115
Ti      13.55233      1.90622     15.49664        -1.289017      0.189383     -1.406409
Ti      13.35858     13.37056      2.37950         0.710810      0.151693     -0.388027
Ti      13.44306     13.43262     15.34218        -0.802909     -0.477173      0.145157
Ti       1.91180      1.97049      6.77446        -0.072529     -0.805348     -0.945635
Ti       1.81452     13.41141      6.80459         0.228686      0.193388     -0.014602
Ti      13.43415      1.86881      6.74706        -0.581719      0.915214     -1.397420
Ti      13.34568     13.44934      6.75980         0.372776     -0.733313     -0.680257
Ti       1.94132      1.97917     10.98665        -0.402507     -0.702404      0.310735
Ti       1.84209     13.39142     11.03659         0.343371      0.016180      0.398128
Ti      13.40745      1.84999     11.18384        -0.402220      0.587610     -2.459677
Ti      13.37511     13.34174     11.13750         0.466350      0.301115      0.193284
Ti       1.86969      5.71039      2.38122         0.111211      0.073244      0.896903
Ti       1.81484      5.69710     15.37662         0.863806      0.346347      0.343708
Ti      13.39755      5.77740      2.35672         0.404752     -0.532017     -0.664602
Ti      13.39208      5.74114     15.41391         0.257713     -0.783746      0.741675
Ti       1.76319      5.73804      6.63659         1.305238      1.509741      0.736735
Ti      13.37874      5.84311      6.63498         0.041062     -0.047843     -0.187774
Ti       1.87186      5.73154     11.02505        -0.081105      0.463464      1.932917
Ti      13.43039      5.62989     11.28437        -0.018703      0.533646     -1.704036
Ti       1.90231      9.56826      2.33981         0.732243      0.059236     -0.420799
Ti       1.85645      9.58860     15.46360         0.062028     -0.108222      0.072470
Ti      13.48057      9.54584      2.35103        -0.595890      0.288558     -0.433172
Ti      13.27999      9.53440     15.40421         0.389022      0.560723      0.913900
Ti       1.94352      9.58384      6.68021        -0.546445     -0.671136      0.519363
Ti      13.42213      9.68278      6.63694        -0.386483     -0.438514      0.853579
Ti       1.87510      9.56799     11.01390         0.638626      0.009617      2.609437
Ti      13.37976      9.45624     11.14468         0.170994      0.686830     -1.022864
Ti       5.77637      1.84502      2.41327        -0.409975     -0.710190     -0.680088
Ti       5.75855      1.88261     15.33525         0.198230     -0.303234     -1.800299
Ti       5.69614     13.29085      2.44603         0.421935      1.289934     -1.030296
Ti       5.64983     13.36454     15.22416        -0.143261      0.182081      1.837742
Ti       5.74019      1.93092      6.71247        -0.474552     -0.065335      0.398160
Ti       5.57347     13.48167      6.60111         1.072770     -0.772295      1.075596
Ti       5.73281      1.89630     11.06800        -0.081684     -0.064307     -0.521710
Ti       5.68944     13.37459     11.00903         0.910714      0.692753      0.814198
Ti       5.72257      5.62152      2.25713         0.161025      0.402290      0.834225
Ti       5.61258      5.71018     15.45620         0.559324      0.631417      1.489604
Ti       5.76182      5.80726      6.76296        -0.595975      0.210630     -0.476447
Ti       5.71311      5.69834     11.03156         0.331325      0.511495      0.880018
Ti       5.81835      9.52025      2.35069        -1.267502      0.397314      0.328202
Ti       5.67650      9.49415     15.30908         0.643774     -0.011037      2.006156
Ti       5.69452      9.62771      6.59368        -0.247943      0.045078      1.321753
Ti       5.76433      9.56610     11.07516        -1.446324     -0.132234      0.366435
Ti       9.66149      1.90560      2.43774        -0.723415     -0.278441     -1.294520
Ti       9.57668      1.86484     15.47551        -0.257212      0.434613      1.208721
Ti       9.60122     13.32228      2.41105        -0.815809      0.371071     -1.073822
Ti       9.46417     13.41154     15.39082         0.746220     -0.321847      0.258022
Ti       9.56268      1.91395      6.70632         0.207208      0.297219     -1.017054
Ti       9.51067     13.37120      6.66867        -0.128573     -0.018788      0.796191
Ti       9.55923      1.93115     11.11206         0.025777      0.248906      1.075953
Ti       9.54707     13.42142     11.10547        -0.864525      0.026214     -1.441680
Ti       9.49688      5.78623      2.29427         1.181542     -1.181247      0.003578
Ti       9.55247      5.74493     15.48844        -0.482878      0.152792     -1.571949
Ti       9.52851      5.72221      6.65113         0.580918      0.372973      1.922483
Ti       9.66716      5.66287     11.10273        -0.933095      0.539954     -0.202841
Ti       9.56632      9.52089      2.34338         0.602190      0.567785     -0.197462
Ti       9.48849      9.58377     15.40908        -0.937189     -0.745073     -0.759142
Ti       9.58251      9.58702      6.73055         0.529075      0.079570     -0.999184
Ti       9.48320      9.52945     10.97595         0.718800     -0.721579      0.352389
O       2.06765      1.86937      0.59901        -0.194883      0.160543      0.092704
O       2.03645      1.84527     13.71059        -0.368105     -0.164986     -2.353519
O       1.80913     13.46167      0.45042         0.324712     -0.096563     -0.014548
O       1.79875     13.48681     13.66514         0.133208     -0.022713      1.019723
O      13.57325      1.93885      0.68283        -0.424844     -0.029678     -0.511257
O      13.46222      1.85478     13.66863         0.128686      0.265342      0.886063
O      13.34815     13.36808      0.63042        -0.021650      0.051463     -0.187277
O      13.49423     13.47709     13.60675        -0.169707     -0.088256     -0.167957
O       1.93684      1.92176      5.00915        -0.115629      0.150449      0.199378
O       1.94108     13.28453      5.07447        -0.260900      0.360189     -0.671938
O      13.54982      1.84910      4.94797        -0.325309     -0.120742      0.875816
O      13.45835     13.38885      5.00888        -0.211812      0.221552     -0.103141
O       1.92632      1.90652      9.25331        -0.046237      0.105501     -0.793591
O       1.96617     13.33137      9.27817        -0.349105      0.141466     -0.001347
O      13.40712      1.97237      9.30556         0.120837     -0.301080      1.329829
O      13.21173     13.34000      9.40909         0.291477      0.440268     -0.466453
O       1.79329      5.67636      0.67357         0.168728     -0.211812     -1.127837
O       1.90883      5.81442     13.65911        -0.399383     -0.330693     -0.476306
O      13.43522      5.69097      0.56192        -0.066025      0.186909      0.790759
O      13.52107      5.56593     13.69225        -0.397482      0.236940     -0.645964
O       1.77199      5.71469      4.90139         0.310516      0.044555     -0.805895
O      13.40884      5.83554      4.90928         0.106783     -0.249052     -0.420974
O       1.77782      5.87632      9.32573         0.090617     -0.163426     -1.090355
O      13.35605      5.64594      9.46375         0.134682      0.022653      0.179388
O       1.90609      9.44034      0.58810        -0.453116      0.437412     -0.972314
O       1.80814      9.52386     13.75527         0.036721      0.052345     -1.239096
O      13.34173      9.45098      0.57253         0.336428      0.253530      0.229267
O      13.27706      9.51173     13.69450        -0.111180      0.085750     -1.115665
O       1.92370      9.65907      4.95143         0.037871     -0.235043     -1.276948
O      13.34729      9.63618      4.91102         0.150542      0.040564     -0.370634
O       1.82918      9.62118      9.34025        -0.112008     -0.214924     -2.684310
O      13.27163      9.52961      9.37484         0.446638     -0.015816      0.376579
O       5.72301      1.60461      0.66432        -0.025601      0.714715     -0.142537
O       5.62841      1.88308     13.53513         0.388744     -0.186884      0.922827
O       5.78193     13.29871      0.66631        -0.224046     -0.082989      0.352687
O       5.69065     13.37608     13.51254         0.207113     -0.086914     -1.020335
O       5.69407      1.82552      4.94669         0.223928      0.410581      0.055588
O       5.49249     13.48985      4.86833         0.397071     -0.065960     -0.260280
O       5.68445      2.03762      9.27004        -0.029255     -0.391616      0.836659
O       5.67925     13.39018      9.26984        -0.042546      0.117998     -0.346986
O       5.72415      5.72265      0.54051        -0.089703     -0.110975     -0.968795
O       5.59213      5.71392     13.78240         0.244677     -0.070066     -2.118499
O       5.78512      5.93584      5.00137         0.143853     -0.426794     -0.241078
O       5.68603      5.76914      9.26555        -0.088060      0.079799      0.175485
O       5.63448      9.52260      0.63932         0.304323      0.324042     -0.887968
O       5.70324      9.48296     13.62379        -0.014831      0.367485     -1.881773
O       5.75992      9.37319      4.87814        -0.054927      0.116361     -0.892260
O       5.67839      9.49252      9.34909         0.147457     -0.027935     -0.971950
O       9.59957      1.69156      0.67816         0.189489      0.394716      0.422638
O       9.57280      2.00258     13.76171        -0.142656     -0.256440     -1.286809
O       9.47807     13.38375      0.60701         0.426591     -0.085562      0.623146
O       9.41602     13.29318     13.61827         0.219156      0.361783      0.045714
O       9.57662      2.09610      4.90377        -0.385473     -0.275756      0.658432
O       9.58040     13.10102      4.96091         0.006762      0.458674     -0.379860
O       9.59513      1.93293      9.44126        -0.233031     -0.211185     -2.319652
O       9.45249     13.50504      9.31777         0.388210     -0.007294      0.769313
O       9.39384      5.78991      0.51315         0.706933      0.231620     -0.058596
O       9.40253      5.67060     13.67452         0.575050     -0.220600      0.763343
O       9.60115      5.56728      4.96268        -0.380636      0.123850     -1.239461
O       9.62808      5.58972      9.34680         0.293664      0.393637      0.208140
O       9.49602      9.46148      0.59593         0.226253     -0.078965     -0.439853
O       9.47083      9.55588     13.63048         0.255502      0.321729      0.255124
O       9.67279      9.75005      4.93973        -0.470681     -0.204131      0.681502
O       9.58720      9.54774      9.22896        -0.326419     -0.088516     -0.396946
O       3.86859      1.80596      2.82470        -0.213224      0.581031     -0.059356
O       3.95960      1.90269     15.84576        -1.776281     -0.599367      0.188270
O       3.71661     13.52070      2.70450         1.035132     -0.561798     -0.031736
O       3.79627     13.17407     15.70951         0.086043      1.153597      0.032197
O       0.03922      1.88946      2.82994         0.189048      0.077114     -0.174781
O       0.02095      1.79028     15.86469         0.237933      0.540061     -0.343146
O       0.00668     13.35366      2.68785         0.076021      0.602543      0.038384
O      15.30447     13.50261     15.87286        -0.645831     -0.525574     -0.123684
O       3.76045      2.01676      7.12299         0.922603     -0.090114      0.057022
O       3.77221     13.37466      7.25769         0.042126      1.063493     -0.520721
O      15.34506      1.98908      7.17559        -0.614281     -0.734851     -0.096093
O      15.26379     13.35032      7.16489         0.235461      0.375080      0.216164
O       3.76029      1.82058     11.45760         0.586435      0.336826     -0.213717
O       3.82155     13.35422     11.44662        -0.689757      0.064822     -0.097656
O       0.01947      1.81366     11.42411        -0.579719      0.804203      0.060082
O      15.31298     13.32958     11.44354        -0.150019      0.372495     -0.234519
O       3.89952      5.73675      2.76417        -0.659360     -0.121890      0.028592
O       3.75371      5.64145     15.87559         0.144432      0.172828      0.199872
O      15.35477      5.65549      2.80906        -0.234131      0.410650     -0.215550
O      15.28663      5.67376     15.81858         0.033204      0.021798      0.149757
O       3.74785      5.90177      7.01202         0.159486     -0.485898      0.271759
O      15.24215      5.83917      7.14766        -0.281260     -0.508582     -0.096382
O       3.77796      5.74595     11.53194         0.148937     -0.009904     -0.755812
O      15.33002      5.65533     11.59748         0.267042      0.034390     -0.203135
O       3.79266      9.54456      2.69635         0.680366     -0.388248      0.463811
O       3.71950      9.54538     15.84599         1.004855      0.006773     -0.045896
O       0.01992      9.57454      2.78481        -0.192472      0.092407     -0.347942
O      15.24470      9.56497     15.74519        -0.592130     -0.382179      0.558574
O       3.77597      9.47003      7.06278         0.719225     -0.191259      0.041808
O      15.29805      9.63208      7.02808        -0.542844      0.374573      0.328452
O       3.80957      9.50600     11.46391        -0.338361      0.448038      0.049704
O      15.26104      9.65773     11.48879        -0.087197     -0.540921      0.053203
O       7.63839      1.90024      2.88254         0.566381      0.042892     -0.228830
O       7.61509      1.90117     15.85866         0.537626     -0.255663     -0.251084
O       7.73805     13.30922      2.82624        -1.151517     -0.005307      0.240999
O       7.52796     13.36442     15.81374         0.619034     -0.021944     -0.589175
O       7.63509      1.96206      7.12876        -0.339447     -0.038417     -0.270617
O       7.53477     13.37691      7.09933        -0.039191      0.085066     -0.309985
O       7.61325      1.82604     11.51048         0.420007      0.230869     -0.293983
O       7.68934     13.43017     11.42320        -0.616017      0.096303      0.391385
O       7.71710      5.58933      2.69996        -1.289391      0.425412      0.491668
O       7.62837      5.75441     15.83208        -0.535661     -0.335397      0.042331
O       7.65270      5.81118      7.21906         0.400940     -0.167246     -0.654406
O       7.55820      5.66687     11.54388         0.507723      0.414719     -0.335320
O       7.69648      9.61855      2.75747        -0.617950     -0.043173      0.083219
O       7.60192      9.45554     15.77955        -0.166155      0.329696      0.141998
O       7.59086      9.58995      7.09142         0.312699      0.414237     -0.174793
O       7.62059      9.46140     11.33819         0.656488     -0.083022      0.284780
O      11.54316      1.90488      2.95374         0.392500     -0.104732     -1.105588
O      11.45589      1.97206     15.88236         0.424265     -0.759300     -0.018817
O      11.49536     13.45123      2.81214         0.271397     -0.218474     -0.148487
O      11.41773     13.36459     15.66080        -0.026007      0.404351      0.347600
O      11.37704      1.89254      7.02486         1.625725     -0.059157      0.229664
O      11.39289     13.49325      7.21965         0.537599     -0.284216     -0.646071
O      11.45761      1.97433     11.52644         0.664617     -0.497439      0.309267
O      11.38414     13.44725     11.60728         1.069011     -0.464845     -0.305664
O      11.51191      5.88395      2.68159         0.018448     -0.571018     -0.231974
O      11.43789      5.61620     15.78595         0.665692      0.231165      0.275770
O      11.54664      5.78951      7.09927        -0.844717     -0.640764      0.023900
O      11.51176      5.62895     11.62385        -0.119419      0.070614      0.010750
O      11.51715      9.45576      2.74775         0.308665      0.364007     -0.397767
O      11.32326      9.55487     15.92781         1.375697     -0.019547     -0.265860
O      11.40947      9.69409      7.13669         1.041154      0.005254      0.013241
O      11.41066      9.53977     11.45062         0.648156     -0.054825      0.344533
O       1.94369      3.78647      2.88887         0.209685     -0.047136     -0.448755
O       1.94682      3.77490     15.77453        -0.456006     -0.446827      0.238497
O       1.90469      0.01310      2.76759        -0.409383     -0.418007     -0.102307
O       1.93575     15.32160     15.90868         0.387067      0.686172     -0.342705
O      13.48827      3.81569      2.86071        -0.591081      0.316672     -0.432954
O      13.35844      3.74807     15.91106         0.638456      0.314193     -0.131708
O      13.46712     15.32210      2.76733        -0.000670     -0.053739      0.060959
O      13.40011     15.34921     15.89734        -0.357698     -0.166298     -0.417901
O       1.82662      3.93898      7.08333         0.029734     -1.039344      0.237274
O       1.85302     15.35591      7.06843        -0.046949     -0.000794      0.498119
O      13.46202      3.79457      7.01571        -0.664093      0.565768     -0.026987
O      13.40493      0.00702      7.18557         0.072315     -0.005836     -0.007801
O       1.90237      3.83314     11.47407        -0.130666     -0.354844     -0.350927
O       1.85625     15.31308     11.39048         0.320022     -0.233795     -0.078680
O      13.38729      3.75496     11.62338         0.511676     -0.589650      0.089186
O      13.37469     15.34787     11.50678        -0.202720     -0.360438     -0.145080
O       1.93707      7.64101      2.63823        -0.314849     -0.318665      0.783527
O       1.94137      7.56278     15.81324        -0.681240      0.657418      0.520391
O      13.53279      7.65630      2.85836         0.029574     -0.026283     -0.593003
O      13.30553      7.61183     15.84381        -0.034285      0.269736     -0.299413
O       1.68302      7.66558      6.99716         0.347495      0.321221      0.358100
O      13.29330      7.75360      7.02172         0.429455     -0.087911      0.263470
O       1.78084      7.71277     11.51915         0.097846     -0.996685     -0.329597
O      13.40303      7.54069     11.55628        -0.093444      1.195789      0.012789
O       2.02313     11.49274      2.67809        -0.821285      0.499102     -0.221659
O       1.74333     11.47565     15.72380        -0.076404      0.223944      0.720050
O      13.46004     11.44617      2.74296        -0.351703      0.250926     -0.199241
O      13.28906     11.51872     15.76857         0.548474     -0.380611      0.110945
O       1.93168     11.46649      7.15195        -0.294260      0.090657      0.326818
O      13.26856     11.60719      7.17857         0.269014     -1.242610     -0.082332
O       1.88922     11.43709     11.50189         0.007994      0.876861      0.125640
O      13.35607     11.49518     11.55470        -0.345149     -0.441682     -0.115374
O       5.72634      3.76150      2.67038        -0.083455      0.056642      0.317174
O       5.73122      3.72510     15.79255         0.242618      1.166825      0.128570
O       5.71856     15.21786      2.73847         0.589827      0.758315      0.640239
O       5.79482     15.28176     15.67967        -0.828936     -0.277176      0.009850
O       5.68527      3.93223      7.14208         0.164248     -0.937518     -0.490150
O       5.68710      0.05589      7.16215        -0.305985     -0.390439     -0.355787
O       5.74949      3.79280     11.56776        -0.448087      0.211971     -0.763067
O       5.65669     15.30364     11.43912         0.320821      0.190444     -0.239148
O       5.82041      7.62609      2.62172         0.171181     -0.342410      0.517914
O       5.64961      7.65661     15.80536        -0.209319     -0.556210      0.256899
O       5.78009      7.68656      7.20796        -0.339455      0.417881     -0.249798
O       5.66033      7.65745     11.63122         0.487747     -0.938674     -0.981618
O       5.60048     11.45172      2.90562         0.739836     -0.211802     -0.538161
O       5.67138     11.42019     15.75816         0.592496      0.088223     -0.296271
O       5.51260     11.49374      6.88363         0.668495     -0.042911      0.085061
O       5.74691     11.49844     11.42541         0.135014     -0.389845      0.094734
O       9.69123      3.81692      2.63417        -0.099510      0.172757      0.339890
O       9.52098      3.77061     16.00348         0.648822      0.180187     -0.910609
O       9.54937     15.33376      2.94459         0.352986     -0.183777     -0.349848
O       9.49318     15.29416     15.78731         0.131454      0.046542     -0.306588
O       9.51783      3.85157      7.23064         0.268680     -0.207145     -0.682432
O       9.48480     15.31442      7.03720        -0.214722      0.532688     -0.077525
O       9.53938      3.84058     11.52798        -0.225805     -0.993876      0.467310
O       9.62991     15.34838     11.60942        -0.616762      0.021858     -0.546603
O       9.51238      7.62876      2.79161        -0.080526     -0.023146     -0.152356
O       9.52247      7.60021     15.66940         0.403147      0.462789      0.855370
O       9.67589      7.69058      7.00980        -0.699060     -0.394762      0.066111
O       9.63849      7.56032     11.47718        -0.515221      0.654461     -0.174398
O       9.65839     11.41429      2.70457         0.150065      0.377776      0.025523
O       9.41870     11.48625     15.84543         0.543212      0.203637     -0.328949
O       9.52766     11.55351      7.34366         0.153955     -0.351536     -0.890389
O       9.49142     11.38125     11.36088         0.248917      1.374703      0.294032
