  # total energy = -7882.14424822 
CRSYTAL
PRIMVEC
    15.3600000000000000    0.0000000000000000    0.0000000000000000
     0.0000000000000000   15.3600000000000000    0.0000000000000000
     0.0000000000000000    0.0000000000000000    17.440000000000000
PRESSURE
2.16674 2.12506 -0.513485 -0.424136 -0.411781 0.049944
PRIMCOORD
320 1
Pb       3.80539      3.84490      4.37351        -0.109646     -0.043446     -0.057251
Pb       3.94694      3.81601     17.34412        -0.714478     -0.236398      0.560061
Pb       3.82374     15.34564      4.32033        -0.187217     -0.209531      0.572880
Pb       3.89096      0.02589     17.39643         0.045476     -0.205351      0.333633
Pb      15.31461      3.82834      4.38032         0.342844     -0.059217      0.320543
Pb       0.06303      3.83101      0.02158        -0.008639      0.275149      0.012599
Pb       0.01304     15.31748      4.31763         0.048622      0.012390      0.198307
Pb      15.17303     15.32570     17.41230         1.041105     -0.095184      1.066189
Pb       3.79073      3.90713      8.57764         0.079670      0.014288      0.660001
Pb       3.82379     15.32647      8.78670        -0.119378      0.211866     -0.110771
Pb      15.13643      3.86570      8.60671         0.645401      0.243025      1.275664
Pb      15.29277      0.11975      8.65876         0.524926     -0.487076      0.920262
Pb       3.87495      3.77551     12.95830        -0.204049      0.252456      1.051252
Pb       3.79256     15.25298     12.99459        -0.041398      0.245573      0.070690
Pb      15.31602      3.72858     13.07924         0.319463      0.510824      0.229846
Pb      15.35142      0.03386     12.93402         0.276913     -0.960553      0.959369
Pb       3.89119      7.69925      4.27254        -0.207254     -0.251651      0.136345
Pb       3.75036      7.66825      0.02007         0.149839     -0.107962     -0.152781
Pb       0.12712      7.67289      4.29653        -0.336279     -0.040692      0.577688
Pb      15.34631      7.77992     17.33877        -0.028465     -0.794955      0.300625
Pb       3.93352      7.61366      8.68508        -0.746900      0.516847      0.289345
Pb      15.33330      7.62916      8.67003         0.087178      0.407373      0.266673
Pb       3.83219      7.65726     13.06124        -0.554409      0.177801      0.381873
Pb       0.03872      7.68992     13.06129         0.383012     -0.101938      0.432690
Pb       3.71060     11.47526      4.30186        -0.010952      0.025642      0.571846
Pb       3.95693     11.35960     17.32866        -0.580038      0.522539      0.679168
Pb       0.10762     11.61215      4.19197        -0.189507     -0.497165      1.145755
Pb      15.30908     11.46295     17.35003         0.006913      0.286131     -0.138872
Pb       3.79153     11.58434      8.70222         0.228725     -0.782792      0.408017
Pb      15.35973     11.40083      8.64989        -0.249586      0.329133      0.545975
Pb       3.93866     11.51991     13.00029        -0.882673     -0.622625      0.038722
Pb       0.06330     11.48307     13.10709         0.309820     -0.018897      0.028926
Pb       7.67341      3.73993      4.37498         0.264420      0.487834     -0.126836
Pb       7.73371      3.90032     17.26451        -1.396401     -0.597560      1.803908
Pb       7.66967      0.05598      4.30304        -0.270484     -0.834416      0.271984
Pb       7.48738     15.34851     17.32897         0.562241     -0.232655      1.021482
Pb       7.65904      3.81614      8.67175        -0.004988      0.292165      0.824184
Pb       7.69124     15.28262      8.62913        -0.270292     -0.150682      0.234971
Pb       7.78139      3.91866     13.18927        -0.565171      0.064954     -0.285926
Pb       7.71559      0.08538     13.02163        -0.779976     -0.393939      0.270875
Pb       7.57359      7.58803      4.27056         0.121888     -0.059390      0.603263
Pb       7.66690      7.63777     17.42028        -0.686616      0.267894     -0.355361
Pb       7.60963      7.79737      8.62027         0.390540     -0.571720      0.987939
Pb       7.63927      7.62971     12.99861         0.121276     -0.124837      0.664985
Pb       7.65226     11.43591      4.32711         0.478208      0.149562      0.497707
Pb       7.60986     11.60981     17.30891        -0.465967     -0.608857      0.981789
Pb       7.72779     11.47476      8.68320        -0.780592      0.469991      0.396159
Pb       7.82730     11.62367     13.06813        -0.944030     -0.990358     -0.073404
Pb      11.57575      3.75682      4.34377        -0.414179      0.706711      0.444508
Pb      11.51231      3.83017      0.00079         0.084301     -0.216609      0.205205
Pb      11.54298      0.03247      4.23307         0.060489     -0.645577      1.374515
Pb      11.46347     15.32827     17.23686        -0.637483     -0.286020      1.033990
Pb      11.57111      3.98997      8.65789        -0.484223     -0.578035      0.628552
Pb      11.50444     15.28447      8.63328        -0.598333      0.410709      0.843808
Pb      11.52497      3.74723     13.16956        -0.318074      0.192255      0.259463
Pb      11.42182     15.33379     13.01002         0.821491      0.279825      1.019441
Pb      11.56886      7.69255      4.22795        -0.454554     -0.215308      1.375470
Pb      11.43649      7.60324     17.43143         0.203510      0.200185      0.004647
Pb      11.54971      7.65939      8.65124        -0.320352      0.362874      0.252959
Pb      11.44189      7.70221     12.98757        -0.401650     -0.375610      0.655293
Pb      11.55447     11.42084      4.37031        -0.373666     -0.185432      0.210088
Pb      11.42053     11.48834     17.36786         0.089683      0.334620      0.100038
Pb      11.48907     11.50835      8.78688        -0.005312     -0.165820      0.028820
Pb      11.49093     11.49066     12.95351        -0.235053     -0.593873      0.859100
Ti       1.99587      1.89927      2.35950        -0.171985      0.238920     -1.161218
Ti       1.98553      1.87472     15.36919         0.144748      0.406969      2.631449
Ti       1.92568     13.51199      2.20074        -0.520549     -0.835448     -0.816922
Ti       1.85971     13.50952     15.49554         0.660665     -1.103748     -1.463792
Ti      13.55178      1.90700      2.43167        -0.370928      0.008719     -0.421021
Ti      13.54638      1.91264     15.49109        -1.010922      0.249075     -1.641521
Ti      13.35495     13.36851      2.38117         0.889118      0.125935     -1.168718
Ti      13.43906     13.44436     15.34242        -0.562990     -0.786543     -0.412839
Ti       1.91287      1.96386      6.76221        -0.083570     -0.679479     -0.887163
Ti       1.81979     13.40935      6.79363         0.215871      0.072222     -0.455667
Ti      13.44678      1.87280      6.74568        -0.637019      0.810761     -1.760050
Ti      13.35041     13.45011      6.75133         0.210108     -0.805817     -1.016990
Ti       1.92362      1.97079     10.99640        -0.091179     -0.607144     -0.851834
Ti       1.84585     13.40186     11.03835         0.305788     -0.429280     -0.140935
Ti      13.40874      1.84586     11.17717        -0.474895      0.636007     -2.314285
Ti      13.37455     13.33922     11.14181         0.513022      0.402426     -0.821224
Ti       1.86162      5.71902      2.38636         0.298446     -0.066127     -0.262860
Ti       1.81362      5.69780     15.37146         0.898359      0.397448     -0.162481
Ti      13.39444      5.78121      2.36115         0.428782     -0.607857     -1.289643
Ti      13.38888      5.74461     15.41188         0.421524     -0.783291      0.172161
Ti       1.76492      5.74070      6.62791         1.158004      1.461715      0.078693
Ti      13.38354      5.83970      6.64068        -0.157386      0.012131     -0.820811
Ti       1.87293      5.72165     11.02567        -0.135364      0.966325      1.035665
Ti      13.43927      5.63069     11.26624        -0.235448      0.349231     -1.525354
Ti       1.90485      9.56976      2.34235         0.775782      0.017398     -0.905796
Ti       1.85392      9.58782     15.46098         0.246700     -0.224543     -1.079829
Ti      13.49008      9.54606      2.34716        -0.954423      0.177310     -0.598045
Ti      13.27569      9.53424     15.41294         0.586534      0.471924      0.163380
Ti       1.92836      9.58159      6.68038        -0.067365     -0.640723     -0.395679
Ti      13.41415      9.68400      6.64144        -0.367678     -0.523535     -0.344673
Ti       1.86874      9.56994     11.00668         0.842765      0.143110      2.474805
Ti      13.38244      9.45435     11.13620         0.220688      0.718310     -1.325301
Ti       5.77020      1.84926      2.41401        -0.416141     -0.863253     -1.707014
Ti       5.75171      1.87749     15.32464         0.283209     -0.063573     -1.217741
Ti       5.70526     13.29252      2.44961         0.076966      1.272471     -1.843165
Ti       5.65482     13.36770     15.22940        -0.054875      0.101760      1.263605
Ti       5.73592      1.92681      6.70913        -0.487813      0.069252     -0.184131
Ti       5.57963     13.48121      6.59999         0.803963     -0.828271      0.436155
Ti       5.72839      1.89800     11.07041         0.033917     -0.194313     -0.765630
Ti       5.69004     13.37818     11.00352         0.636350      0.554222      0.671799
Ti       5.71901      5.61955      2.26175         0.280488      0.677730     -0.360187
Ti       5.61362      5.70880     15.45429         0.471817      0.773046      0.884127
Ti       5.75626      5.81204      6.76727        -0.569616      0.196383     -0.957272
Ti       5.71394      5.69583     11.03672         0.294037      0.594225      0.207823
Ti       5.82193      9.52024      2.36138        -1.617310      0.307448     -1.178801
Ti       5.68262      9.50706     15.31837         0.495868     -0.273996      0.883325
Ti       5.70653      9.62607      6.59380        -0.561920     -0.076963      0.584343
Ti       5.76233      9.55445     11.06494        -1.418206      0.067259      0.237757
Ti       9.66073      1.90028      2.44697        -0.629891     -0.053318     -1.962183
Ti       9.58048      1.88006     15.46881        -0.543609      0.079929      1.112494
Ti       9.60280     13.32687      2.40844        -0.833039      0.218459     -1.630311
Ti       9.47419     13.41190     15.38494         0.349877     -0.378746      0.374914
Ti       9.55330      1.91206      6.70001         0.487236      0.313403     -1.014338
Ti       9.50394     13.36949      6.67200         0.059462     -0.088497      0.414768
Ti       9.55898      1.92612     11.11029         0.098770      0.590368      0.287350
Ti       9.54571     13.42155     11.10697        -0.704272      0.040658     -1.975999
Ti       9.49368      5.78646      2.28254         0.972044     -1.008742     -0.303602
Ti       9.55197      5.74939     15.48227        -0.618916     -0.145964     -1.863553
Ti       9.51624      5.71739      6.65489         0.895928      0.389702      0.656248
Ti       9.66076      5.67475     11.09687        -0.802320      0.209459     -0.112083
Ti       9.56256      9.52757      2.33973         0.516037      0.314021     -0.386734
Ti       9.50081      9.57584     15.40877        -1.247274     -0.519703     -1.193136
Ti       9.57545      9.58155      6.72689         0.870799      0.189040     -1.374802
Ti       9.49367      9.53033     10.96600         0.487164     -0.918768      0.380491
O       2.07489      1.85385      0.55244        -0.274776      0.267966      1.509104
O       2.05990      1.83575     13.68868        -0.494359     -0.076332     -1.708845
O       1.80303     13.46629      0.40831         0.343551     -0.135425      1.116832
O       1.79751     13.50218     13.64267         0.171222     -0.087901      1.346021
O      13.58019      1.96036      0.66519        -0.482405     -0.165937     -0.159224
O      13.46832      1.85348     13.63134         0.120144      0.216880      1.579012
O      13.35056     13.36505      0.58927        -0.054782      0.029770      0.776745
O      13.51257     13.48600     13.57386        -0.316123     -0.102503      0.692800
O       1.92785      1.93026      4.97075        -0.070140      0.129882      0.877470
O       1.94209     13.28017      5.02957        -0.332022      0.459563      0.347979
O      13.55181      1.84367      4.91239        -0.326089     -0.115849      1.577538
O      13.44369     13.38897      4.96216        -0.150587      0.268364      0.707427
O       1.95370      1.90634      9.21004        -0.225487      0.151007      0.576962
O       1.96620     13.35096      9.24522        -0.397414      0.118587      0.743391
O      13.42582      1.98143      9.28009         0.028361     -0.357818      1.644514
O      13.21147     13.35558      9.36147         0.376664      0.372607      0.783700
O       1.79872      5.66369      0.63491         0.103770     -0.085023      0.144197
O       1.91934      5.82350     13.61928        -0.513536     -0.431141      0.444678
O      13.44379      5.69503      0.50922        -0.162868      0.220728      1.946173
O      13.53265      5.57972     13.65689        -0.466863      0.192633      0.102623
O       1.76105      5.71277      4.85792         0.434592      0.069039      0.168341
O      13.43519      5.82831      4.88669         0.017787     -0.248803      0.279962
O       1.78137      5.88584      9.28336         0.130385     -0.319887      0.184883
O      13.35869      5.65375      9.42937         0.170130     -0.013808      0.647724
O       1.89425      9.45902      0.55049        -0.493736      0.368984      0.107419
O       1.82747      9.52721     13.69641        -0.102309      0.121218      0.373062
O      13.31933      9.44827      0.53178         0.427376      0.287581      1.045817
O      13.28618      9.51339     13.66972        -0.151507      0.122711     -0.307652
O       1.96113      9.64032      4.89692        -0.195235     -0.227618      0.350242
O      13.36410      9.63351      4.86298         0.119401      0.049892      0.926562
O       1.83334      9.61934      9.31502        -0.146675     -0.201634     -2.228108
O      13.25818      9.54004      9.32331         0.557797     -0.051122      1.486933
O       5.70886      1.58548      0.60639         0.071305      0.913196      1.282601
O       5.63026      1.88962     13.51948         0.351969     -0.274197      1.092826
O       5.76015     13.30327      0.61693        -0.156425     -0.097870      1.531575
O       5.68666     13.37970     13.48595         0.241992     -0.035533     -0.105436
O       5.67560      1.81793      4.90568         0.346431      0.463289      0.920042
O       5.46089     13.50377      4.82930         0.707651     -0.207970      0.935664
O       5.70001      2.03408      9.24987        -0.138293     -0.354489      1.315806
O       5.67809     13.39003      9.24923         0.033203      0.173662     -0.067522
O       5.75527      5.73571      0.50026        -0.223284     -0.195920      0.337661
O       5.61176      5.72034     13.74671         0.185112     -0.169393     -1.021146
O       5.79341      5.93976      4.96873         0.105849     -0.506363      0.689239
O       5.69183      5.77300      9.21713        -0.079521     -0.007920      1.349634
O       5.62258      9.52681      0.58408         0.465789      0.282808      0.713258
O       5.72121      9.47998     13.58834        -0.061197      0.499244     -0.463966
O       5.78488      9.35871      4.84313        -0.144960      0.317885      0.107206
O       5.67532      9.48376      9.31737         0.247232      0.067199     -0.249990
O       9.59876      1.69779      0.64154         0.256462      0.404160      1.442944
O       9.58792      2.02058     13.74011        -0.197287     -0.386812     -0.702590
O       9.47424     13.38953      0.56509         0.562166     -0.148472      1.466730
O       9.40272     13.28824     13.60290         0.368395      0.395337      0.203402
O       9.58516      2.12438      4.86797        -0.448852     -0.520504      1.325207
O       9.58435     13.11140      4.94074        -0.042245      0.483048      0.129047
O       9.61334      1.93437      9.40414        -0.330806     -0.209451     -1.010269
O       9.46231     13.50390      9.27813         0.264116     -0.021351      1.678777
O       9.39401      5.82093      0.47654         0.783808      0.001382      0.523683
O       9.37614      5.65966     13.63585         0.753457     -0.072816      1.507566
O       9.62488      5.58331      4.91870        -0.533151      0.116284      0.240824
O       9.61897      5.59978      9.33805         0.263584      0.328406      0.116651
O       9.47852      9.47407      0.57397         0.387296     -0.091730      0.101687
O       9.46958      9.57075     13.59582         0.316219      0.183401      1.157084
O       9.69174      9.76688      4.89960        -0.681304     -0.364786      1.542878
O       9.58767      9.56620      9.20554        -0.384211     -0.189387     -0.059957
O       3.88433      1.78639      2.84179        -0.512361      0.842244     -0.336788
O       3.96394      1.92071     15.86155        -1.709467     -0.719687     -0.145813
O       3.70954     13.51640      2.72347         1.046489     -0.484723     -0.287336
O       3.81103     13.17475     15.73163        -0.212527      1.245298     -0.261015
O       0.03330      1.88708      2.82890         0.434911      0.049213     -0.283462
O       0.03811      1.77115     15.85739        -0.373118      0.739826     -0.502619
O      15.35499     13.33858      2.71777         0.274933      0.820959     -0.297617
O      15.31087     13.50183     15.87586        -0.614952     -0.538124     -0.332033
O       3.76040      2.01124      7.13685         0.794014     -0.036635     -0.239527
O       3.77206     13.37006      7.27157         0.210091      1.192843     -0.859149
O      15.33288      1.98341      7.19043        -0.208157     -0.690501     -0.386967
O      15.25548     13.34017      7.17554         0.522552      0.465756     -0.084209
O       3.73832      1.84245     11.48656         0.725268      0.178219     -0.514850
O       3.81070     13.35675     11.45577        -0.502616      0.158409     -0.296099
O       0.01683      1.80134     11.44970        -0.457884      0.970701     -0.248300
O      15.31016     13.30931     11.44388        -0.106858      0.519094     -0.342123
O       3.91376      5.73425      2.76876        -0.851379     -0.162615     -0.039094
O       3.75349      5.64241     15.89028         0.166295      0.193151     -0.071555
O       0.01131      5.66336      2.81149        -0.650596      0.397537     -0.372248
O      15.26976      5.65922     15.81777         0.428157      0.107657      0.002625
O       3.75414      5.90378      7.03319         0.061314     -0.554994     -0.065239
O      15.22843      5.84667      7.15859         0.039584     -0.581774     -0.276929
O       3.75536      5.75837     11.54690         0.640523     -0.119762     -1.020175
O      15.34214      5.65183     11.59292         0.106249      0.005465     -0.378987
O       3.77782      9.53444      2.71517         0.853463     -0.318688      0.234609
O       3.71521      9.53292     15.85517         0.846913      0.112242     -0.237821
O       0.01315      9.59037      2.79459        -0.049775     -0.086978     -0.573291
O      15.23483      9.54400     15.75544        -0.371468     -0.245761      0.384458
O       3.78831      9.48619      7.06766         0.221865     -0.268613     -0.130562
O      15.28993      9.63940      7.03829        -0.363110      0.292410      0.120157
O       3.78098      9.49216     11.47627         0.347988      0.641231     -0.222817
O      15.27261      9.65154     11.48756        -0.702118     -0.447283     -0.146557
O       7.61866      1.90530      2.88616         0.850707     -0.093784     -0.316832
O       7.61899      1.91314     15.86827         0.410040     -0.333362     -0.496523
O       7.74788     13.30972      2.84284        -1.055125     -0.041971      0.002745
O       7.52934     13.36156     15.84179         0.624749     -0.066160     -0.887946
O       7.62441      1.95298      7.15019        -0.058312      0.003493     -0.531232
O       7.53106     13.37706      7.10436        -0.137714      0.096966     -0.464354
O       7.61651      1.82310     11.52229         0.389592      0.194777     -0.496811
O       7.69751     13.43426     11.45096        -0.462103      0.140750      0.064183
O       7.71549      5.58986      2.71433        -1.133330      0.442113      0.303174
O       7.60939      5.75427     15.84524        -0.087691     -0.382814     -0.219802
O       7.66077      5.81529      7.23316         0.213133     -0.115841     -0.852638
O       7.54255      5.68696     11.56909         0.286935      0.250054     -0.731430
O       7.67076      9.62002      2.77331        -0.087540     -0.017240     -0.096234
O       7.60623      9.43455     15.80000        -0.004687      0.494521     -0.117842
O       7.58072      9.59074      7.11467         0.597637      0.419143     -0.415691
O       7.63523      9.46247     11.36923         0.260748     -0.069209     -0.084631
O      11.54969      1.91387      2.96423         0.091353     -0.234719     -1.319345
O      11.45538      1.96399     15.89138         0.621481     -0.787841     -0.170026
O      11.50389     13.43549      2.82490         0.077899     -0.153130     -0.370785
O      11.42441     13.35997     15.66182         0.062094      0.434514      0.205301
O      11.36846      1.88493      7.04318         1.460534      0.004854     -0.010115
O      11.38109     13.48775      7.22787         0.805957     -0.240303     -0.838457
O      11.44710      1.97572     11.55733         0.820091     -0.595881      0.005320
O      11.39114     13.43126     11.61429         0.807545     -0.362352     -0.442156
O      11.51335      5.89693      2.68695         0.143371     -0.714385     -0.468132
O      11.45878      5.61085     15.79239         0.044287      0.254111      0.101866
O      11.54899      5.78106      7.11870        -0.781130     -0.638593     -0.148385
O      11.50129      5.62456     11.63056         0.360553      0.080815     -0.193278
O      11.51412      9.43754      2.77385         0.395433      0.551294     -0.832355
O      11.32604      9.55201     15.91084         1.268624     -0.046274     -0.259752
O      11.40914      9.68396      7.14819         0.891218      0.129139     -0.249917
O      11.40179      9.52513     11.46083         1.076396     -0.041751      0.143181
O       1.92108      3.80441      2.87823         0.460451     -0.459649     -0.467611
O       1.96071      3.78477     15.78380        -0.578883     -0.524607      0.021304
O       1.92930      0.02142      2.77434        -0.664077     -0.508232     -0.244929
O       1.94302     15.35302     15.91105         0.340934     -0.087265     -0.619975
O      13.48523      3.80661      2.88378        -0.530706      0.615490     -0.700198
O      13.35500      3.76115     15.92867         0.692056     -0.263580     -0.430070
O      13.46497     15.33566      2.77168        -0.054135     -0.418060     -0.095469
O      13.42128     15.33584     15.92365        -0.585395      0.148479     -0.743397
O       1.82696      3.94637      7.09131         0.016418     -1.113768      0.026161
O       1.86619     15.35627      7.08916        -0.128241     -0.031992      0.149316
O      13.46560      3.79015      7.03411        -0.683681      0.529855     -0.232247
O      13.42612      0.00460      7.20406        -0.106342      0.016007     -0.309863
O       1.91383      3.84265     11.47272        -0.260348     -0.666115     -0.475156
O       1.85166     15.30018     11.40140         0.324871      0.076060     -0.229041
O      13.38119      3.73979     11.63737         0.630923     -0.284373     -0.225075
O      13.37688     15.34396     11.50101        -0.249487     -0.267220     -0.238311
O       1.94626      7.63947      2.67509        -0.420846     -0.194644      0.416203
O       1.95111      7.55035     15.84195        -0.882782      0.685158      0.207384
O      13.53412      7.64668      2.88415         0.099468      0.080766     -0.953416
O      13.30236      7.60988     15.83345        -0.068103      0.351312     -0.321440
O       1.68210      7.65698      7.01296         0.381434      0.544567      0.104595
O      13.27570      7.75880      7.04436         0.573267     -0.130554      0.007697
O       1.79453      7.74839     11.52631        -0.126275     -1.683686     -0.473566
O      13.42125      7.52658     11.57898        -0.231348      1.472453     -0.346186
O       2.05823     11.49518      2.69834        -1.190839      0.481939     -0.518034
O       1.76468     11.46071     15.74929        -0.211755      0.431255      0.428973
O      13.48537     11.43893      2.76078        -0.604185      0.333772     -0.520659
O      13.30122     11.51321     15.78710         0.474242     -0.239681     -0.074577
O       1.95473     11.46602      7.17294        -0.522567      0.060609     -0.057758
O      13.28360     11.60978      7.19439         0.148172     -1.240521     -0.351235
O       1.89587     11.44215     11.51978        -0.055186      0.968037     -0.067009
O      13.36692     11.50965     11.57544        -0.433386     -0.841282     -0.363702
O       5.72972      3.76778      2.67197        -0.127540     -0.184203      0.246534
O       5.71803      3.73594     15.82894         0.425199      0.836431     -0.267285
O       5.74618     15.19623      2.74151         0.511307      1.017261      0.484559
O       5.79687     15.27025     15.69806        -0.829538     -0.014717     -0.305458
O       5.69289      3.93332      7.13089         0.123723     -0.897027     -0.558879
O       5.69273      0.07523      7.16440        -0.329237     -0.725867     -0.479403
O       5.76661      3.77927     11.57811        -0.578928      0.511638     -0.979868
O       5.65146     15.30341     11.43424         0.333176      0.377666     -0.294806
O       5.81034      7.63614      2.64072         0.220217     -0.440025      0.324755
O       5.62755      7.66490     15.79903        -0.091231     -0.648458      0.143834
O       5.76937      7.70024      7.23805        -0.169412      0.148412     -0.650640
O       5.66399      7.67813     11.64659         0.484829     -1.240819     -1.360458
O       5.60649     11.44790      2.89883         0.708527     -0.082419     -0.561264
O       5.66124     11.41362     15.75938         0.707489      0.196301     -0.410671
O       5.51682     11.49461      6.88112         0.736845      0.080225     -0.005133
O       5.73883     11.52230     11.42215         0.194733     -0.814209     -0.063745
O       9.67640      3.81890      2.64710        -0.025984      0.014782      0.118623
O       9.51822      3.75841     16.01978         0.830566      0.400116     -1.171108
O       9.55519     15.32700      2.95231         0.309628     -0.120739     -0.544941
O       9.47763     15.27628     15.78267         0.318127      0.374487     -0.411370
O       9.51095      3.86273      7.23830         0.280079     -0.455371     -0.882879
O       9.49301     15.30397      7.03694        -0.357408      0.813815     -0.194882
O       9.55193      3.84487     11.54593        -0.407013     -1.221104      0.210748
O       9.65314     15.35246     11.61281        -0.825987     -0.159537     -0.713696
O       9.51070      7.62895      2.79532        -0.113488      0.000960     -0.325972
O       9.50908      7.57722     15.68738         0.574868      0.855245      0.553902
O       9.69271      7.68524      7.00297        -0.857421     -0.224795      0.005466
O       9.65486      7.52526     11.47186        -0.619877      1.308774     -0.219905
O       9.66812     11.39303      2.71238         0.052590      0.955230     -0.175354
O       9.42357     11.48355     15.86584         0.598262      0.016145     -0.576127
O       9.54369     11.55484      7.35603        -0.084781     -0.457704     -1.121642
O       9.49826     11.34787     11.37552         0.226920      2.060538      0.127272
