  # total energy = -7879.66034449 
CRSYTAL
PRIMVEC
    15.3600000000000000    0.0000000000000000    0.0000000000000000
     0.0000000000000000   15.3600000000000000    0.0000000000000000
     0.0000000000000000    0.0000000000000000    17.440000000000000
PRESSURE
0.564088 0.793065 -1.52207 0.117717 0.324645 -0.055573
PRIMCOORD
320 1
Pb       3.80515      3.80031      4.43367        -0.065930      0.085626     -0.662820
Pb       3.90825      3.73227     17.38777        -0.265761      0.414649     -0.234494
Pb       3.77120     15.29787      4.40784        -0.107320     -0.223858      0.286978
Pb       3.80287     15.34244     17.37129        -0.108621     -0.056016     -0.282933
Pb       0.04060      3.77553      4.42809        -0.426462     -0.170162     -0.724059
Pb       0.16497      3.85888      0.07699        -0.641544      0.143332     -0.534611
Pb       0.07507     15.27770      4.32669        -0.445538      0.407226     -0.178352
Pb      15.11952     15.25574      0.02648         0.421541      0.421482     -0.475702
Pb       3.71767      3.91982      8.67766         0.366039     -0.310543     -0.386638
Pb       3.84039      0.00675      8.81349        -0.051719      0.024263     -0.873893
Pb      15.08929      3.98815      8.67292         0.086986     -0.779962     -0.121421
Pb      15.21520      0.14783      8.77001        -0.058812      0.051765     -0.469276
Pb       3.83340      3.73904     12.93247         0.008859      0.666517     -0.195937
Pb       3.70346     15.27002     12.90601         0.245363     -0.151900      0.010523
Pb       0.02815      3.66497     13.14236        -0.304587      0.218068     -0.088349
Pb       0.02751     15.33190     12.98135        -0.633165      0.110259     -0.114596
Pb       3.88268      7.65046      4.30342         0.396324      0.100172     -0.495505
Pb       3.67223      7.57341     17.43271         0.291278      0.223774     -0.155845
Pb       0.19762      7.74849      4.33249        -0.797461      0.147632     -0.719645
Pb      15.22559      7.71690     17.37796         0.243372     -0.382994     -0.320455
Pb       3.92993      7.68014      8.74456        -0.028013     -0.083213     -0.007559
Pb      15.34480      7.64513      8.72070        -0.422137     -0.004895     -0.227323
Pb       3.78918      7.58356     13.03769        -0.062883      0.143945     -0.501104
Pb       0.05700      7.63726     13.16667        -0.043553      0.156193     -0.531987
Pb       3.65585     11.51240      4.31779         0.896923      0.420808      0.248822
Pb       3.96209     11.37300     17.33838        -0.042276      0.439568     -0.473113
Pb       0.07396     11.65417      4.23794        -0.420705     -0.294955     -0.461767
Pb      15.21212     11.49629     17.30955         0.221379      0.381455      0.076853
Pb       3.79348     11.57460      8.73736         0.176880     -0.062923     -0.381094
Pb      15.28931     11.37030      8.74517         0.455224      0.150245     -0.394230
Pb       3.91091     11.45034     12.97785         0.000829      0.171831     -0.287500
Pb       0.16198     11.49820     13.15706        -0.169011     -0.089523     -0.702775
Pb       7.72592      3.68171      4.42139        -0.125402      0.242286     -0.418872
Pb       7.60951      3.85493     17.39571         0.375105      0.022845     -0.340869
Pb       7.73148     15.33675      4.41310        -0.035722      0.194096     -0.609650
Pb       7.45002     15.31575     17.38259         0.488617      0.021281     -0.738273
Pb       7.65350      3.83663      8.70727         0.091031      0.134126     -0.683184
Pb       7.66609     15.27910      8.61802        -0.140190      0.056267     -0.144289
Pb       7.83420      4.00291     13.23880         0.114777     -0.431208     -0.677665
Pb       7.60718      0.19139     13.02144         0.112244     -0.550964     -0.205128
Pb       7.62954      7.49043      4.27494        -0.194691      0.624978      0.565025
Pb       7.56233      7.68126      0.00219         0.176889      0.070858     -0.094045
Pb       7.61382      7.83089      8.67827         0.324628     -0.477212     -0.270457
Pb       7.58586      7.63025     12.96648         0.609102      0.368552     -0.215141
Pb       7.72513     11.38595      4.40661        -0.670025      0.237608     -0.601906
Pb       7.54031     11.60802     17.38067         0.319932      0.050960     -0.712115
Pb       7.66483     11.51553      8.69535        -0.188073     -0.032908     -0.081421
Pb       7.81799     11.58086     13.03155        -0.630933      0.066013     -0.054575
Pb      11.51453      3.74397      4.35013         0.059840     -0.234837     -0.651486
Pb      11.61673      3.80694      0.09618        -0.204283     -0.132260     -0.588217
Pb      11.56839     15.27281      4.32781         0.060991      0.176352     -0.646125
Pb      11.35621     15.24608     17.38287         0.066115      0.275415     -0.085482
Pb      11.48665      4.05556      8.71816        -0.177634     -0.755248     -0.282881
Pb      11.44956     15.30594      8.66388         0.255492      0.258455      0.081803
Pb      11.58241      3.69066     13.30859        -0.354660      0.117814     -0.681369
Pb      11.47656     15.33134     13.06202         0.480501      0.301594     -0.935394
Pb      11.52121      7.68817      4.21205         0.041364     -0.045132      0.137583
Pb      11.44935      7.59160      0.07341         0.387660      0.570635     -0.909926
Pb      11.54348      7.68960      8.70008        -0.134338      0.225621     -0.552907
Pb      11.40031      7.66403     13.09412        -0.176092     -0.349400     -0.744770
Pb      11.57054     11.38434      4.36539        -0.025166      0.381929     -0.599231
Pb      11.32376     11.47329     17.38174         0.509046     -0.260882     -0.009997
Pb      11.54070     11.53219      8.81601         0.003582     -0.309882     -0.754474
Pb      11.48367     11.43854     13.01251         0.392938      0.201974     -0.265631
Ti       1.83705      1.87363      2.28152        -0.251333      0.501971      0.020554
Ti       1.86021      1.87765     15.45070        -0.733934     -0.322557     -1.310252
Ti       1.98830     13.54520      2.17792        -0.760421     -1.324680     -0.350656
Ti       1.99483     13.45831     15.38403        -0.725767     -0.164268     -0.376695
Ti      13.33608      1.88379      2.21879         0.267760     -0.106601      0.784828
Ti      13.35649      1.90478     15.45084         0.558163     -0.057617     -0.640993
Ti      13.42775     13.37343      2.27511        -0.887331      0.006194     -0.416043
Ti      13.41883     13.43220     15.28299         0.069914     -0.330862     -0.444534
Ti       1.81383      1.89220      6.67861         0.295208     -0.253157      0.324538
Ti       1.85739     13.46022      6.80687         1.181432     -0.231745     -0.858846
Ti      13.32148      1.84311      6.67222         0.500894      0.378822     -0.954690
Ti      13.51752     13.35566      6.63715        -0.797740      1.512249      0.325960
Ti       1.85087      1.95337     10.98441        -0.460423     -0.498233     -0.996133
Ti       1.85581     13.38204     10.90664         0.748061     -0.460528      1.134062
Ti      13.38132      2.05182     11.01281        -0.829207     -1.074201      0.295534
Ti      13.43901     13.42334     10.91195         0.080386      0.583114      0.699447
Ti       1.94866      5.76332      2.31053         0.229964     -0.091959     -0.497278
Ti       1.97400      5.66722     15.38864        -0.366305      1.030705      0.009573
Ti      13.48356      5.80660      2.29386         0.072862     -1.051120      0.014653
Ti      13.43111      5.69938     15.40927         0.189186      0.640688      0.551922
Ti       1.88067      5.79674      6.61662         0.684920     -1.124248     -0.347823
Ti      13.41980      5.75776      6.52622        -0.072112      0.141159      0.365293
Ti       1.77898      5.67578     11.03011         1.521260      0.922879      0.678538
Ti      13.45193      5.78974     11.09076        -1.629587      0.053243      0.050706
Ti       1.96505      9.67115      2.20790        -0.531684     -0.768986     -0.978375
Ti       2.06368      9.60037     15.40280        -0.241137     -0.614785     -0.914617
Ti      13.37696      9.58108      2.23413         0.567393      0.385575     -0.002233
Ti      13.49754      9.64852     15.30830        -1.219556     -0.462756      1.244308
Ti       1.96068      9.49909      6.75280         0.180303      1.452320      0.784581
Ti      13.46070      9.59660      6.62618        -1.232902     -0.744606     -0.897877
Ti       1.96614      9.49435     11.02194        -0.440264      1.126298      0.644902
Ti      13.46448      9.55983     11.03148         0.587137      0.100512      1.433183
Ti       5.59592      1.89908      2.31673         0.913590      0.362947      0.974647
Ti       5.63820      2.04500     15.24356         0.966570     -1.520557      0.611573
Ti       5.72840     13.54051      2.30097        -0.010464     -1.892660      1.250036
Ti       5.72065     13.56353     15.22169         0.371756     -1.858142      0.144762
Ti       5.70573      1.84938      6.67525        -0.418221      0.243403      0.783756
Ti       5.78730     13.37062      6.64435        -0.846832      0.354938      0.499379
Ti       5.71595      1.87775     11.00428         0.323412      0.702203     -0.003337
Ti       5.82202     13.46470     11.00649        -0.200611     -0.369275     -0.096435
Ti       5.81148      5.73523      2.31764        -0.522430     -0.034042      0.256902
Ti       5.80597      5.76823     15.31552        -0.783183      0.671180      1.074111
Ti       5.72617      5.73712      6.68232         0.683412      0.245118      0.251987
Ti       5.76296      5.70532     10.99289        -1.417863     -0.106730     -1.175223
Ti       5.77720      9.69090      2.28192        -0.423700     -0.425534      1.551583
Ti       5.87935      9.52525     15.33430        -1.600803      1.502709     -0.630681
Ti       5.71737      9.62932      6.67253        -0.220605      0.274217     -0.064444
Ti       5.80442      9.59543     11.04934        -0.256401      0.099474     -0.384952
Ti       9.44988      1.94094      2.13550         0.914690     -1.066809     -0.114828
Ti       9.46568      1.87238     15.39473         0.440699      0.959339     -0.271354
Ti       9.53102     13.36097      2.25725         0.885511      0.390653     -0.635520
Ti       9.56400     13.45892     15.33078        -1.129045     -0.325968      0.139870
Ti       9.58002      1.92062      6.75417        -0.083086      0.442844      0.618441
Ti       9.67503     13.33916      6.63609         0.207915      1.058197      0.557621
Ti       9.57341      1.98651     10.94357         0.902382      0.407757     -1.219559
Ti       9.67963     13.45108     10.94296        -0.739877      0.399878      0.193957
Ti       9.60835      5.74689      2.31952         0.519239     -0.410870      0.781851
Ti       9.58311      5.78049     15.42522         0.546667     -0.753998     -0.795280
Ti       9.60125      5.82941      6.56102        -0.504343     -0.398810      0.263945
Ti       9.57445      5.75760     10.96855         0.735697      0.202774      0.835824
Ti       9.51383      9.60771      2.35602         0.338213     -0.027280     -1.003094
Ti       9.56594      9.60676     15.39360         0.890731     -0.241893     -0.268173
Ti       9.55573      9.60842      6.56034         0.865874     -1.041623      0.083811
Ti       9.59651      9.64228     10.99132        -0.439136     -1.674267     -0.974596
O       1.97986      1.85153      0.49580        -0.126554      0.430227      0.231365
O       1.69245      1.88618     13.62050         0.587371      0.059537      0.314987
O       1.96283     13.43322      0.41689         0.012628      0.276273     -0.260642
O       2.01128     13.48421     13.57853        -0.276912     -0.103040      0.256298
O      13.41380      1.88204      0.46216        -0.301368     -0.043031     -1.257732
O      13.34951      1.89581     13.60571         0.009862      0.121582      0.635286
O      13.40080     13.18979      0.51306         0.077573      0.748080     -0.877292
O      13.45930     13.51344     13.51155        -0.393198     -0.247077      0.359605
O       1.84173      1.77202      4.88561        -0.227429      0.448286     -0.062793
O       2.08990     13.47677      4.99795        -0.909174     -0.076782     -0.326501
O      13.28482      1.80366      4.86183         0.142380      0.421657     -0.180065
O      13.53441     13.36329      4.85856        -0.206041     -0.014092     -1.024484
O       1.80806      1.90063      9.18491        -0.116627      0.209349      0.609271
O       1.93838     13.49501      9.16624        -0.528042     -0.079707     -0.385389
O      13.45477      2.07652      9.26205         0.047151     -0.295244     -1.254303
O      13.48110     13.45141      9.13549        -0.093531     -0.065477     -0.029510
O       1.86844      5.70075      0.49606         0.750791     -0.309662      0.096685
O       1.97947      5.77671     13.62588        -0.401884     -0.257234     -0.118712
O      13.37647      5.76773      0.51114         0.034430     -0.115008     -0.085232
O      13.52811      5.62125     13.68320        -0.347126      0.631476     -1.381187
O       1.90576      5.87279      4.80409        -0.058095     -0.035159      0.264866
O      13.59388      5.75109      4.78227        -0.159063     -0.072221     -0.756749
O       1.93101      5.68219      9.29430        -0.436172     -0.069961     -0.874662
O      13.36692      5.86998      9.31392         0.598224     -0.286564     -1.040532
O       1.90338      9.54282      0.41898         0.339700      0.475639      0.235149
O       2.10199      9.50512     13.57871        -0.357364      0.241339      0.452339
O      13.29386      9.55647      0.45417         0.535609      0.258706      0.180292
O      13.48321      9.64002     13.57156        -0.195957     -0.093730     -0.898871
O       2.05747      9.41601      4.99588        -0.409538      0.123572     -0.643327
O      13.43916      9.57147      4.83522         0.201275      0.125646      0.268624
O       1.86323      9.55012      9.28981        -0.257226     -0.250141     -1.589945
O      13.46931      9.39435      9.30168         0.084743      0.342446     -1.306369
O       5.54201      1.85651      0.57670         0.434928      0.262028     -1.298173
O       5.69324      2.05332     13.52753         0.165684     -0.376693     -1.386040
O       5.72567     13.58016      0.56000         0.056296     -0.288823     -0.993479
O       5.74973     13.56166     13.48309         0.016556     -0.437878     -1.162204
O       5.71970      1.73121      4.93149        -0.155721      0.641090     -1.081583
O       5.72868     13.31841      4.88376         0.025210      0.402443     -0.140154
O       5.72335      1.92592      9.26786         0.144041     -0.450109     -1.097829
O       5.89014     13.50112      9.21490        -0.182734     -0.029293      0.138364
O       5.86813      5.76788      0.54287        -0.147641     -0.212626     -0.037475
O       5.87445      5.70841     13.59372        -0.084232      0.104063     -1.506166
O       5.78783      5.86892      4.91287        -0.276883     -0.405752     -0.431100
O       5.69785      5.79383      9.15066         0.355649     -0.154810      0.975474
O       5.74743      9.54357      0.55968         0.229992      0.336031     -1.418594
O       5.81739      9.63711     13.56349        -0.024287     -0.431512     -0.462891
O       5.67920      9.75317      4.92243        -0.065229     -0.206384     -0.353219
O       5.85435      9.47607      9.26201        -0.240512      0.499203     -0.010491
O       9.50178      1.90685      0.31894        -0.121592      0.319653      0.849759
O       9.62898      2.00071     13.58022        -0.227232     -0.615305     -0.314196
O       9.55384     13.25229      0.42342        -0.240011      0.391032      0.662259
O       9.52458     13.38169     13.58054         0.206463      0.383314     -1.139226
O       9.56111      1.82474      4.99283         0.093173     -0.138490     -0.803697
O       9.79356     13.47967      4.89156        -0.583611      0.181505     -0.750866
O       9.75249      2.20091      9.11162        -1.036476     -0.722593      0.729417
O       9.79196     13.25088      9.16255        -0.439289      0.144414      0.301942
O       9.53319      5.58635      0.58560         0.112420      0.140000     -1.210272
O       9.55702      5.84950     13.59609        -0.165516     -0.271830      0.421349
O       9.61404      5.82356      4.77675         0.254636      0.097515     -0.137224
O       9.50157      5.66505      9.23636         0.176314      0.261193     -1.125286
O       9.50367      9.74443      0.56996        -0.011520     -0.114387     -0.533497
O       9.62991      9.52781     13.60045        -0.108997      0.142626      0.189467
O       9.61102      9.55731      4.74688         0.046898     -0.037404      0.715025
O       9.58175      9.64724      9.20098         0.104118      0.261361     -0.209967
O       3.76550      1.98583      2.68529        -0.193990      0.201608      0.516061
O       3.80223      1.79231     15.69936         0.289591      0.932338      0.373578
O       3.77317     13.41957      2.72054         1.003362      0.169849     -0.115450
O       3.85195     13.47932     15.73249        -0.556956      0.035504      0.250063
O      15.28629      1.65600      2.59671         0.827722      0.754407      0.273204
O      15.35782      1.89004     15.86286        -0.938536      0.095675      0.146645
O      15.32184     13.40223      2.48985         1.496262      0.497899      0.953916
O      15.33908     13.25121     15.61797         0.049431      0.592078      0.490948
O       3.73782      1.75939      7.09768         1.112790      0.469083     -0.010516
O       3.81726     13.40019      7.14175         0.797947      0.316853      0.251779
O      15.21234      2.02493      7.03202         1.871595     -0.128355      0.249833
O      15.34446     13.43760      7.00303         0.346041     -0.141877      0.472547
O       3.75710      1.86781     11.21797        -0.302627     -0.015430      0.744533
O       3.86751     13.45574     11.30429        -0.913912      0.402535      0.037374
O      15.24669      1.96607     11.37057         1.727353      0.173625      0.467384
O      15.28290     13.35476     11.39653         1.543867     -0.014877     -0.136326
O       3.93574      5.68500      2.73723        -0.434668     -0.339319      0.052187
O       3.91043      5.65105     15.69060        -0.856048      0.509178      0.514347
O       0.11528      5.79452      2.53660        -1.136428      0.450945      0.693652
O      15.30733      5.68588     15.82164         1.019777      0.120527      0.207879
O       3.83916      5.78905      7.02897        -0.130669      0.001213      0.097569
O      15.35203      5.70896      7.01154         0.491209      0.200194      0.045757
O       3.76218      5.70043     11.36708         0.923039      0.228101      0.499094
O      15.30457      5.66874     11.42213         1.319405      0.262106      0.316915
O       3.82320      9.66993      2.61532         0.445263      0.124882      0.297801
O       3.91623      9.48521     15.84553        -0.362093      0.227658      0.065101
O       0.02232      9.49676      2.56592         1.101893      0.061218      0.475292
O       0.00675      9.74558     15.64297        -0.183234     -0.733723      0.191270
O       3.80557      9.62783      7.28038        -0.099621      0.026303     -0.500648
O      15.29565      9.52983      7.08529         1.289283      0.028557      0.252105
O       3.85665      9.50110     11.34606         0.826039      0.293917      0.399028
O       0.03735      9.68624     11.41110        -0.212967     -0.043810      0.434256
O       7.58578      1.90806      2.73378         0.534281     -0.462052     -0.054386
O       7.58702      2.05348     15.61577        -0.630015     -0.541687      0.387465
O       7.69448     13.50002      2.63916        -0.660760     -0.089062      0.369118
O       7.55513     13.50709     15.70637         0.727768     -0.567925      0.717032
O       7.61010      1.90322      6.92769         1.023334      0.065060      0.851328
O       7.71415     13.33726      6.97724         0.403238      0.311157      0.213575
O       7.64590      1.86182     11.30752         0.721634      0.213982      0.277464
O       7.76878     13.41332     11.26186        -0.094512      0.209953      0.413781
O       7.75902      5.70759      2.80681        -0.501273      0.199918     -0.340754
O       7.63865      5.73418     15.78581         0.783740     -0.362325      0.317065
O       7.69131      5.80418      6.89087        -0.260956      0.216652      0.515604
O       7.57013      5.72484     11.38490         1.269011     -0.330229      0.236733
O       7.66439      9.57072      2.75523        -0.069461      0.091586      0.132231
O       7.65396      9.55497     15.76379         0.903024      0.102856      0.491587
O       7.62612      9.65339      6.95336         1.124937      0.004936      0.250937
O       7.69515      9.62895     11.23054        -0.272128      0.027417      0.968490
O      11.43947      2.01613      2.56222        -0.218331     -0.591391      0.212872
O      11.46812      1.90868     15.69255         0.259561     -0.532594      0.511254
O      11.52919     13.26394      2.55861        -0.694280      0.340143      0.621105
O      11.39700     13.53252     15.63266         0.717618     -0.118186      0.338988
O      11.50358      1.99549      7.00203        -0.688306     -0.496391      0.386815
O      11.55771     13.52909      7.06505         0.102903     -0.621581     -0.061445
O      11.45244      1.97260     11.28049         0.509898     -0.094616      1.051643
O      11.54251     13.39759     11.32631        -0.279302     -0.030169      0.480494
O      11.58776      5.78115      2.69908        -0.383215     -0.600856      0.031462
O      11.48816      5.74675     15.73395        -0.405501     -0.134604      0.480027
O      11.55074      5.74063      6.91619        -0.439381      0.412715      0.199431
O      11.51917      5.96804     11.32145        -0.208992     -0.319177      0.485216
O      11.49902      9.68532      2.62754         0.612175     -0.331407      0.418521
O      11.48240      9.64104     15.79016        -0.657635     -0.314315     -0.293516
O      11.53635      9.51657      7.00975         0.015097      0.613459      0.071903
O      11.45966      9.66188     11.30160         1.439867     -0.756067      0.656490
O       1.78526      3.79323      2.81010         0.464064     -0.270114     -0.212266
O       1.89605      3.79333     15.75228         0.293105      0.123398      0.512281
O       1.94518      0.00668      2.72283         0.186057     -0.279611     -0.071086
O       1.87429      0.03748     15.76493        -0.045536     -1.736348      0.232354
O      13.51737      3.75707      2.50419         0.118242      1.094509      0.818250
O      13.37564      3.81077     15.66431        -0.181689     -0.855947      0.811316
O      13.31699     15.33669      2.48564        -0.197590     -1.026424      0.548894
O      13.39482     15.28967     15.76796         0.190501      0.315205      0.487983
O       2.16087      3.84670      6.82375        -1.054333      0.121599      0.171294
O       1.91744      0.00229      6.96340        -0.795482      0.168901      0.836189
O      13.39976      3.83612      7.00855         0.064590      0.940891      0.027727
O      13.52965     15.33198      6.87767        -0.431860      0.352726      0.948211
O       1.92857      3.83168     11.51886        -0.466868     -0.766724     -0.320950
O       1.80765     15.35998     11.38597         0.053368     -0.225074     -0.280725
O      13.40548      3.90502     11.35327        -0.274020     -0.136782      0.669531
O      13.45459      0.07873     11.29670        -0.236242     -1.117276      0.212667
O       2.24668      7.65691      2.43388        -1.014477      0.269139      0.886594
O       1.93000      7.63039     15.65317        -0.163684     -0.143716      0.791419
O      13.44513      7.66672      2.55393        -0.079435      0.309266      0.461692
O      13.39484      7.65731     15.84980         0.268902      0.775589     -0.499166
O       2.01389      7.59853      7.11015        -0.739778      0.796142      0.152789
O      13.44328      7.65988      6.96559         0.216198     -0.310671      0.313455
O       1.95620      7.68710     11.43142        -0.760556     -1.790246      0.337619
O      13.63621      7.65468     11.44322        -0.418251      1.024357      0.690588
O       2.03224     11.61569      2.64455        -1.280925     -1.137815     -0.046161
O       1.97158     11.45436     15.54589         0.520292      0.884547      0.680415
O      13.58640     11.45123      2.64709        -0.262334     -0.150639      0.560747
O      13.27818     11.56017     15.66132         0.316087     -0.545843      0.143023
O       1.88495     11.50244      7.01056        -0.216810     -0.838514      0.608658
O      13.44290     11.56210      7.01136        -0.021736     -1.933820      0.525912
O       2.06643     11.47095     11.22311        -0.565559      1.219641      0.686873
O      13.37719     11.51298     11.22016        -0.017707     -0.276635      0.218816
O       5.84145      3.84045      2.65889        -0.298033     -0.428022      0.315057
O       5.74861      3.87173     15.66641        -0.340746     -0.344311      0.774790
O       5.53704     15.33718      2.60109         0.742809      0.943793      0.685517
O       5.77282     15.35314     15.50938        -0.137628      2.196149      1.011259
O       5.78055      3.82928      7.05425        -0.506880     -0.081171     -0.264810
O       5.87599     15.32308      6.99916        -0.350270     -0.507456      0.489218
O       5.68215      3.75583     11.32850        -0.002275      1.148550      0.235720
O       5.72205     15.33610     11.43297         0.290625      0.425255      0.102827
O       5.84660      7.73160      2.62934        -0.362531     -0.998961      0.467691
O       5.84099      7.69527     15.75354        -0.293572     -1.157467      0.034340
O       5.69449      7.78508      7.00039         0.158229     -1.145266      0.408255
O       5.82646      7.67153     11.36409        -0.384002     -0.504420      0.312686
O       5.84854     11.56009      2.63650        -0.237028      0.002104     -0.102403
O       5.69286     11.53060     15.63429         0.094334     -0.414530      0.762067
O       5.76477     11.52999      7.19095        -0.191880     -0.121850      0.045682
O       5.74585     11.56669     11.40423         0.124664     -0.602242     -0.085294
O       9.62542      3.75923      2.64616        -0.483101      0.602168      0.454406
O       9.57134      3.77183     15.57509        -0.185009      1.483721      0.733577
O       9.50815     15.33268      2.39824         0.686777      0.217084      0.703911
O       9.35277     15.35794     15.67899         0.705830     -0.210411      0.460626
O       9.56942      3.92038      6.91042        -0.045137     -0.577046      0.231855
O       9.64139     15.30215      7.19390        -0.577120      0.611902     -0.335873
O       9.70933      3.89406     11.31118        -0.874727     -0.223722      0.832980
O       9.72323      0.03453     11.16362        -0.438443     -0.768720      0.325313
O       9.73525      7.69467      2.44631        -0.389036     -0.783993      0.653113
O       9.56707      7.62107     15.74361        -0.105727      0.810311      0.655333
O       9.63320      7.73376      7.06908        -0.301125     -0.282133     -0.208087
O       9.54350      7.65699     11.32535        -0.281289      0.662041      0.516554
O       9.57518     11.45399      2.74604        -0.325443      1.390565      0.352443
O       9.39417     11.52535     15.61369         0.431885     -0.177223      0.463885
O       9.67014     11.47999      6.85759         0.086970     -0.188117      0.441021
O       9.58994     11.45086     11.47530         0.276737      1.599845      0.014751
