  # total energy = -7880.26392390 
CRSYTAL
PRIMVEC
    15.3600000000000000    0.0000000000000000    0.0000000000000000
     0.0000000000000000   15.3600000000000000    0.0000000000000000
     0.0000000000000000    0.0000000000000000    17.440000000000000
PRESSURE
3.03438 2.66052 1.48971 0.128445 0.10357 -0.032225
PRIMCOORD
320 1
Pb       3.81283      3.86652      4.22066        -0.347597      0.195983      0.399835
Pb       3.76855      3.90665     17.33205        -0.026142     -1.094691      1.071536
Pb       3.86439      0.00803      4.21528        -0.030480     -0.154999      0.744665
Pb       3.97730      0.05678      0.02082        -0.971999     -0.114951     -0.115149
Pb      15.22042      3.92625      4.28065         1.165575     -0.659887      0.598682
Pb      15.20336      3.74981     17.38069         0.622699     -0.070295      0.032653
Pb      15.23602     15.31378      4.32279         0.072362     -0.154918      0.340807
Pb       0.09345     15.35833     17.42759        -0.111185      0.109064     -0.194325
Pb       3.94566      3.88697      8.57111        -0.363830     -0.603815      1.290631
Pb       3.77182     15.25749      8.77040         0.575710      0.465924     -0.854656
Pb       0.14964      3.67815      8.65215         0.010184      0.446537      0.629653
Pb       0.17561     15.30864      8.57759        -0.659615      0.050925      0.144148
Pb       3.85899      3.94701     13.07685        -0.674106     -0.373286      0.185907
Pb       4.00073     15.31103     13.24101        -0.694699      0.158877      0.158515
Pb      15.23060      3.86785     12.95843         0.898279      0.054674      0.178782
Pb      15.33123      0.04474     12.99017         0.138587     -0.352565      0.610510
Pb       3.79784      7.64878      4.29787        -0.273090      0.048561     -0.235205
Pb       3.84227      7.78278      0.00532        -0.096042     -0.195327      0.026838
Pb      15.19556      7.44150      4.29531         0.950488      1.287269      0.949350
Pb       0.17767      7.67569     17.40784        -0.738157     -0.026760     -0.166333
Pb       3.82340      7.54698      8.66760        -0.179131      0.780640      0.681748
Pb      15.30950      7.69202      8.65951         0.448384     -0.238455      0.531023
Pb       3.80600      7.82683     13.08584         0.370381     -0.674972      0.115196
Pb      15.34358      7.73952     12.90663         0.038474     -0.139898      0.157070
Pb       3.83992     11.41360      4.33872        -0.297583     -0.087281      0.049480
Pb       3.72637     11.41894     17.42644         0.489299      0.345538      0.691867
Pb      15.35531     11.41978      4.26846        -0.236434      0.247269      0.809661
Pb       0.08649     11.38681      0.06853        -0.395802      0.343963      0.148031
Pb       3.71178     11.50340      8.67765         0.548289     -0.481476     -0.129548
Pb       0.10180     11.58930      8.59347        -0.692594     -0.414222      0.500404
Pb       3.73718     11.58328     12.99841         0.633293      0.003218      0.909572
Pb      15.13554     11.42317     13.02677         0.178371      0.371042      0.101727
Pb       7.58562      3.94753      4.27735         0.041690     -0.462384      0.606281
Pb       7.71519      3.84210     17.30100        -1.112324     -0.094899      1.398474
Pb       7.57947      0.00271      4.18245        -0.173192     -0.009507      0.825488
Pb       7.80627     15.27159     17.43720        -0.064720      0.093671      0.197266
Pb       7.71094      3.74671      8.69491        -0.646516     -0.163706      0.055338
Pb       7.68733      0.02591      8.66600        -0.520733     -0.141268      0.038077
Pb       7.48438      3.67267     13.03508         1.205595      0.133480      0.748297
Pb       7.71008     15.05575     13.13635        -0.752683      1.555981      0.670585
Pb       7.58096      7.77149      4.34324         0.638075     -0.374995      0.340478
Pb       7.79193      7.49827     17.37290        -0.573019      1.052752      0.211936
Pb       7.61020      7.63169      8.69008        -0.246462     -0.091578      0.322025
Pb       7.71023      7.61496     13.03043        -0.240719      0.236612      0.258680
Pb       7.66736     11.51804      4.24832        -0.344659     -0.296556      1.122599
Pb       7.70276     11.45420     17.35039         0.003905      0.081671      0.672236
Pb       7.75578     11.40935      8.78347        -0.639500      0.526185     -0.472423
Pb       7.58041     11.51422     13.08639        -0.100451     -0.781285      0.036811
Pb      11.56443      3.90187      4.37969        -0.383036      0.116132     -0.136727
Pb      11.26588      3.78547     17.28803         1.692963      0.326823      1.158170
Pb      11.45790      0.14976      4.28276         0.666617     -0.648023     -0.036396
Pb      11.70946      0.03833     17.30122        -0.586134     -0.088007      1.177945
Pb      11.67369      3.71755      8.69684        -0.511941      0.239422      0.467636
Pb      11.50284     15.28855      8.61835        -0.114962     -0.066115      1.086867
Pb      11.41042      3.91165     12.90923         0.226602     -0.157570     -0.021704
Pb      11.42174     15.29411     13.07438         0.986278     -0.054865     -0.018852
Pb      11.53152      7.69747      4.36080        -1.040049     -0.246755      0.393057
Pb      11.44583      7.64449     17.33371         0.299010      0.240211      0.568553
Pb      11.44103      7.58958      8.66100         0.612798     -0.143128      0.812333
Pb      11.62503      7.72410     12.92281        -0.397411     -0.240646      0.474643
Pb      11.39686     11.55959      4.38278         0.153829      0.103069      0.147135
Pb      11.65293     11.57388     17.41089        -0.278920     -0.233400      0.326397
Pb      11.34819     11.51940      8.75271         0.602052      0.284204      0.267278
Pb      11.37845     11.54891     13.02129         0.910497     -0.064839      0.392396
Ti       1.92826      1.83695      2.33481        -0.988945      0.848344     -0.362510
Ti       1.92892      1.93818     15.42896         0.154512     -0.685322     -0.487639
Ti       1.87236     13.40694      2.38097        -0.552696     -0.237077     -1.259555
Ti       1.88058     13.39552     15.54793         0.221366      1.834335     -0.231352
Ti      13.47535      1.98263      2.29272        -0.812418     -1.484925      1.152297
Ti      13.39060      1.95685     15.24282         1.227105     -0.085140      1.244200
Ti      13.37995     13.42739      2.46797        -0.365972      0.997044     -1.372174
Ti      13.46287     13.41399     15.45611         0.005641     -0.035874     -1.246939
Ti       2.00013      1.95445      6.69576         0.076059     -0.667028     -0.480617
Ti       1.91653     13.38287      6.59919        -0.346095      0.707740     -0.049989
Ti      13.41813      1.81758      6.74125         1.062950     -0.321532     -0.565708
Ti      13.33473     13.33961      6.75936         1.095058      0.143949     -1.962736
Ti       1.91581      1.85500     11.15827         0.521718      1.060383     -0.379285
Ti       1.90593     13.42760     11.07622        -0.715798      0.103504      0.500705
Ti      13.45144      1.86605     11.06632        -0.736768     -0.265541      0.376540
Ti      13.43096     13.37892     11.04235        -0.724932      0.576794      0.425646
Ti       1.82201      5.69657      2.21959         2.025440      0.927332      0.772999
Ti       1.95802      5.77602     15.38826        -0.962816     -0.265252     -0.894623
Ti      13.31428      5.84099      2.34292         0.136550     -0.988702     -2.021195
Ti      13.44095      5.77929     15.42100         0.314257     -0.095464     -0.134331
Ti       1.95666      5.78574      6.76610        -1.331230     -0.128891     -1.099076
Ti      13.44626      5.67169      6.85348         0.231417      1.283609     -0.179914
Ti       1.97592      5.75726     11.07432        -0.294260     -0.430188     -0.123718
Ti      13.45094      5.69638     11.00696         0.091211      0.087403      0.127463
Ti       1.81095      9.49775      2.44289         1.303804      0.497136     -0.374931
Ti       1.84990      9.62072     15.33364         0.396408     -0.077731      0.032423
Ti      13.30289      9.64647      2.39603         0.583814      0.383750     -2.265457
Ti      13.38414      9.58461     15.48877        -0.025267     -0.195141      0.128075
Ti       1.86116      9.55928      6.67575         0.948275     -0.554920     -0.916219
Ti      13.40566      9.56058      6.81857         0.462680      0.220827     -0.566964
Ti       1.92614      9.59400     10.99276        -0.456042     -0.046323     -1.530960
Ti      13.38749      9.59113     10.87623         0.193846      1.282747      0.469936
Ti       5.72502      1.94004      2.21297         0.404406     -0.197577      0.541034
Ti       5.85411      1.84644     15.51933        -2.179782      0.304209      1.437324
Ti       5.70264     13.33445      2.37916        -0.103007      0.074294      0.549161
Ti       5.75154     13.39038     15.55946        -0.377677      0.521244     -2.077763
Ti       5.73673      1.85200      6.66812        -0.489400     -0.349720      1.184584
Ti       5.70712     13.31362      6.73225         0.651776      1.071543     -1.341261
Ti       5.64449      1.86388     11.09045         1.269121      0.201217     -0.760610
Ti       5.69553     13.47806     11.10201        -0.997124     -0.180683     -0.383298
Ti       5.72979      5.74385      2.24275        -1.246625      0.023584      0.008924
Ti       5.69639      5.71458     15.47220         0.099149      0.685863     -0.964429
Ti       5.73696      5.78840      6.67022         0.007833     -0.805219      0.158441
Ti       5.76237      5.78351     11.10457        -0.666888     -0.520125     -1.420782
Ti       5.74350      9.55144      2.30220        -0.906170      0.309459     -0.305682
Ti       5.71970      9.60346     15.52052         0.190286     -0.524258     -1.249821
Ti       5.73868      9.54834      6.73466        -0.580874      0.802647     -1.453815
Ti       5.76870      9.60888     11.07526        -0.273936     -0.557674     -0.054731
Ti       9.58754      1.92828      2.34865         0.351551     -0.001615     -0.944621
Ti       9.55587      1.95761     15.35209         0.144139     -1.180212      1.201476
Ti       9.55631     13.39773      2.38097         0.891838      0.263026     -0.841203
Ti       9.63913     13.43944     15.49792         0.171214     -0.117046      0.218772
Ti       9.59774      1.96023      6.61963        -0.741474     -0.656476      1.725913
Ti       9.52540     13.49125      6.69825        -0.837279     -0.678889      1.229757
Ti       9.53351      1.87441     11.11954        -0.165267      0.222602     -0.224201
Ti       9.46178     13.47209     11.12710         2.048185     -0.707503     -1.844393
Ti       9.50554      5.69555      2.39773         0.382993      2.187476      0.918100
Ti       9.59943      5.78931     15.31929         0.361568      0.151109     -0.914769
Ti       9.54237      5.68815      6.80983         0.564682      0.321370     -2.726545
Ti       9.52241      5.69739     11.02013         0.085024      0.415692      0.511128
Ti       9.53282      9.56232      2.34663         0.766147     -0.815505     -0.162010
Ti       9.58409      9.62228     15.35842        -0.050226      0.073319      0.709718
Ti       9.61820      9.49453      6.84352        -0.779843      0.951095     -0.608462
Ti       9.59476      9.54292     11.08691        -0.275931      0.161526      0.964994
O       1.65923      1.99748      0.59665         0.556359     -0.414723      0.492848
O       2.07270      1.99452     13.68308        -0.692801     -0.327385     -0.912153
O       1.77163     13.43602      0.57429         0.389775     -0.267592      0.272190
O       1.98530     13.43623     13.80547         0.104844     -0.244722     -0.414484
O      13.38906      1.98601      0.58713         0.418161      0.198945     -1.233506
O      13.59115      1.97172     13.51583        -0.389786      0.177771     -0.333686
O      13.23254     13.43289      0.67281         0.172171     -0.217595     -0.340282
O      13.30778     13.28937     13.69589         0.585857      0.574935     -0.277293
O       2.14657      1.97918      4.98543        -0.436554     -0.181209     -1.800324
O       1.84811     13.42669      4.89244        -0.028602      0.033507     -1.270803
O      13.43882      1.78452      4.96364        -0.261249      0.498493      0.665441
O      13.52219     13.44119      4.92527        -0.896129     -0.188456      0.633571
O       1.88649      1.86571      9.38328         0.060547     -0.233078     -0.272402
O       1.76883     13.39727      9.32284         0.784426      0.112494     -0.964306
O      13.50465      1.88533      9.33539        -0.120562     -0.155268     -1.683271
O      13.41846     13.50266      9.32975         0.026735     -0.170666     -1.224452
O       1.89097      5.72030      0.48676        -0.296001      0.265208     -1.090290
O       1.94202      5.84212     13.57454         0.089642     -0.127459      0.992882
O      13.30583      5.68538      0.58352         0.137068      0.378864      1.055563
O      13.41265      5.75001     13.64446        -0.005692     -0.096992     -0.556016
O       1.92019      5.82830      4.98325        -0.005114     -0.053456      0.299708
O      13.39539      5.82878      5.07874         0.422681     -0.421000     -1.227668
O       1.98695      5.77786      9.34662         0.212044     -0.001247     -1.416320
O      13.36283      5.67469      9.29927        -0.123636      0.202700     -1.290324
O       1.96210      9.61515      0.64925        -0.590510      0.010890     -0.699673
O       1.86129      9.54225     13.56522        -0.096959      0.275090      0.132936
O      13.36895      9.73377      0.53471        -0.222465     -0.190004      1.438101
O      13.45264      9.58942     13.75854         0.099190     -0.120763     -0.979425
O       1.96235      9.57610      4.84323        -0.424945     -0.358451      0.761959
O      13.48615      9.65721      5.04113        -0.477794     -0.375117     -0.334773
O       1.97777      9.61350      9.15966        -0.258525      0.259625      1.465840
O      13.42707      9.59289      9.15147        -0.078197     -0.071203     -0.428072
O       5.71803      1.99324      0.49772         0.431505     -0.289145     -0.703316
O       5.83682      1.77090     13.82015         0.081031     -0.035126     -2.010930
O       5.93132     13.22601      0.68545        -0.537667      0.363503     -0.766991
O       5.67011     13.56804     13.64198         0.379967     -0.560623      1.326184
O       5.79209      1.75160      4.95866        -0.226514      0.385936     -1.581058
O       5.79193     13.38495      4.91676        -0.220779     -0.049244      0.391905
O       5.65822      1.99547      9.32443         0.070419     -0.247961      0.114677
O       5.57570     13.47660      9.35905         0.163085     -0.183838     -0.219700
O       5.58603      5.72104      0.48073         0.938567      0.237692      0.248969
O       5.58615      5.85544     13.69473         0.395152     -0.478401      0.503714
O       5.65766      5.69680      4.92943         0.111839      0.138431     -0.465322
O       5.66597      5.80278      9.27483         0.517839     -0.184825      0.652095
O       5.63463      9.72606      0.52486         0.245429     -0.659120      0.132916
O       5.65259      9.58185     13.72404         0.430401      0.075328      0.326647
O       5.83396      9.51949      4.89780        -0.330192      0.260609      1.135868
O       5.76386      9.59108      9.33534         0.103423     -0.211868     -0.326297
O       9.48634      1.96429      0.56627         0.329562     -0.009722      0.398863
O       9.48207      1.93056     13.65985        -0.017933      0.226430     -1.218230
O       9.58664     13.47936      0.59463        -0.134784     -0.246668      0.042089
O       9.70432     13.56700     13.74654        -0.481996     -0.881789     -0.909499
O       9.69654      2.14825      4.93056        -0.022220     -0.593512     -1.535069
O       9.63946     13.35871      5.00126        -0.346822      0.059619     -1.587614
O       9.39998      1.79195      9.37353         0.495277      0.171157     -0.242660
O       9.48418     13.59166      9.32389        -0.126780     -0.472568      1.463102
O       9.63169      5.75430      0.66045        -0.327266      0.138351     -1.162917
O       9.74436      5.76935     13.54870        -0.588517     -0.127983      0.961471
O       9.59863      5.85633      4.96389        -0.033531     -0.826422      1.429355
O       9.55257      5.68992      9.27247        -0.335979      0.162053     -1.123362
O       9.69163      9.44508      0.63367        -0.341466      0.249745     -0.981946
O       9.56989      9.64336     13.62233        -0.152227     -0.228143     -0.022492
O       9.44643      9.49955      5.09426         0.714840      0.237304      0.415121
O       9.58784      9.51018      9.33477        -0.173636      0.307069     -1.201144
O       3.83563      1.85204      2.52634        -0.126452      0.649248      0.548490
O       3.81310      1.82988     15.86421         0.653359     -0.234472      0.390724
O       3.70433     13.36930      2.79148         2.227563     -0.136953     -0.208492
O       3.94818     13.44234     16.01239        -1.493704      0.183467     -0.111362
O      15.32275      1.82372      2.83841         0.567589      0.395724     -0.167326
O       0.00214      1.84506     15.78774        -0.771561      0.824423     -0.067446
O      15.30064     13.54683      2.64016        -0.096083     -0.116395      0.688038
O      15.30411     13.40228     15.82617         0.644935      0.209971      0.273053
O       3.82133      1.95209      7.06904         0.893085     -0.242378      0.700143
O       3.81565     13.37408      6.96881        -0.570378     -0.119454      0.771847
O       0.09782      1.88324      7.04444        -1.546838     -0.266327      0.281438
O      15.27884     13.34034      6.97354         1.024298      0.350990      0.766800
O       3.87111      1.79118     11.56963        -0.651249      0.406332     -0.070887
O       3.79743     13.50991     11.51207         0.331554     -0.024990      0.016980
O      15.34986      1.93218     11.52007         0.623172      0.119309      0.002476
O      15.34117     13.27116     11.40996         0.007256      0.554535      0.513264
O       3.80945      5.71052      2.59867         0.839421      0.228027      0.491019
O       3.79393      5.64417     15.89452         0.095279      1.383117     -0.653821
O       0.02747      5.80566      2.67711        -2.181214     -0.070831      0.188797
O       0.02883      5.92812     15.72987         0.052745     -0.718027      0.264287
O       3.80913      5.73459      7.07844         0.633144      0.641255      0.059351
O       0.01075      5.82271      7.16161        -0.354508     -0.571014      0.053651
O       3.86222      5.87099     11.42998         0.017864     -0.294689      0.445966
O       0.00942      5.66983     11.21047        -1.193514      0.241865      1.082622
O       3.76667      9.49822      2.67195         1.446104      0.564474      0.554343
O       3.78384      9.61789     15.76526        -0.026902      0.214581      0.333425
O      15.32837      9.47212      2.66517        -0.977271      0.656890      0.405916
O      15.32065      9.63902     15.81286         0.981966     -0.280001      0.219648
O       3.82203      9.47423      7.04080        -0.026218      0.312703      0.050254
O      15.35473      9.52689      7.09271        -0.097193      0.297087      0.042545
O       3.79085      9.41336     11.36326         0.510162      0.543807      0.208732
O      15.31723      9.75837     11.37772         0.229101     -0.333721     -0.049635
O       7.70451      1.94874      2.75185        -0.053335     -0.296301     -0.102454
O       7.66787      1.94016     15.91851         0.903923      0.030736     -0.181068
O       7.61696     13.41750      2.81872         0.505448      0.037604     -0.273631
O       7.65666     13.37644     15.80766         0.929854      0.272855      0.191821
O       7.61095      1.90801      7.06917         1.190055      0.223718      0.073403
O       7.58167     13.37173      7.14475         0.556748      0.165794      0.129785
O       7.64423      1.89459     11.45556         0.174431      0.019522      0.509469
O       7.56347     13.39142     11.51652         1.409760     -0.331742      0.021498
O       7.58722      5.78197      2.87284         0.238445     -0.361799     -0.980728
O       7.64466      5.80136     15.77619         0.380212     -0.559817     -0.155590
O       7.62787      5.72840      7.01350         0.553960      0.130343      0.520477
O       7.64189      5.76521     11.46668         0.626937     -0.258718      0.234660
O       7.71541      9.63306      2.65723        -1.707555     -0.123624      0.224321
O       7.66323      9.62234     15.91080        -0.006276     -0.426310     -0.464914
O       7.64246      9.53610      7.21635         0.782718      0.189067      0.174275
O       7.65065      9.62882     11.55052        -0.101990     -0.185062     -0.121348
O      11.53878      1.98555      2.67783        -0.754967      0.448604      0.562207
O      11.48171      1.98500     15.53129        -0.447129      0.316106      0.551007
O      11.41701     13.37718      2.84438         0.623027     -0.439349      0.313082
O      11.57496     13.59257     15.80272        -1.123387     -0.819112      0.454002
O      11.49676      1.81868      7.21520         0.331159      0.700406     -0.771969
O      11.41873     13.42351      7.11780         0.815776     -0.214041      0.174434
O      11.48309      1.92605     11.46162        -0.217529     -0.072638      0.037049
O      11.44335     13.46052     11.42762        -0.025418     -0.160284      0.289886
O      11.47431      5.78505      2.84742         0.792074     -0.020407     -0.125813
O      11.50825      5.72718     15.80231        -0.953776     -0.242770     -0.156614
O      11.51201      5.63878      7.03223        -0.074057     -0.123601      0.901020
O      11.37427      5.83713     11.30151         2.181708     -0.384135      0.668463
O      11.42650      9.61238      2.77623         1.304860      0.041834      0.481121
O      11.46557      9.62932     15.78084        -0.022207     -0.412461      0.120959
O      11.53114      9.67392      7.28995        -1.269465     -0.466623     -0.691268
O      11.47603      9.59681     11.52332         0.762251      0.030038     -0.645804
O       1.87825      3.93092      2.79865        -0.138572     -1.824233     -0.036789
O       1.99372      3.80232     15.76312        -0.859634      1.518333      0.031892
O       2.04322     15.34185      2.66807        -0.889333      0.415142      0.209601
O       1.87510      0.01300     15.84128         0.185153     -0.930476      0.493421
O      13.48510      3.83636      2.78769        -0.257452      1.230901     -0.034519
O      13.47900      3.84188     15.89355        -0.387517     -0.066399     -1.019077
O      13.23596      0.00269      2.58973         0.495637      0.295698      1.021580
O      13.40437      0.10998     15.81023         0.389494     -0.464701     -0.516441
O       1.94234      3.83344      7.09763        -0.232354      0.556249      0.191651
O       1.98004     15.27617      7.00551        -0.279018      0.281894      0.611086
O      13.53926      3.81149      7.17093        -0.523545     -1.286989     -0.236087
O      13.41862     15.27804      7.08191         0.035099      0.765014      0.247717
O       2.01848      3.84371     11.41652        -0.132489     -0.374034      0.485912
O       1.88815     15.34440     11.45127        -0.391746     -0.571488      0.229972
O      13.41663      3.78730     11.26252        -0.345374      1.332086      1.024837
O      13.43055      0.03705     11.49561         0.203240     -1.405848      0.203278
O       2.01903      7.65040      2.63998        -0.766480     -0.908227      0.287554
O       1.98236      7.75720     15.80316        -0.147089     -0.404054      0.078864
O      13.44941      7.75768      2.66857        -0.678172     -1.348512      0.360829
O      13.36621      7.62569     15.86928         0.130268      0.703079      0.017552
O       1.83412      7.66332      7.19350         0.628681      0.067785     -0.279738
O      13.35342      7.63389      7.14851        -0.049947      0.227164      0.205317
O       1.73010      7.70070     11.33824         0.346145      0.582400      0.323868
O      13.46996      7.80112     11.31812        -0.053902     -2.078570      0.433852
O       1.83037     11.53190      2.80323         0.024644     -0.575121     -0.312806
O       1.94569     11.55382     15.91812        -0.409128     -1.480665     -0.385130
O      13.42588     11.53804      2.77134        -0.026508     -0.968129      0.233009
O      13.42612     11.52395     15.74757        -0.353416     -0.106547      0.826395
O       1.94494     11.44930      6.96261        -0.215191      0.362732      0.525283
O      13.46150     11.48162      7.22244        -0.625227      0.473656     -0.195249
O       2.08338     11.55568     11.47922        -0.692135     -0.880434     -0.568714
O      13.31968     11.49252     11.34567         0.032474      0.075226      0.479660
O       5.73356      3.78409      2.67118         0.281728      0.848237      0.223218
O       5.62259      3.77756     15.78336         0.930028      0.642362     -0.128618
O       5.74166     15.35408      2.58507         0.094469     -0.511165      0.358763
O       5.78579     15.30207     16.00772         0.471798      0.289854     -0.088968
O       5.70338      3.88056      7.13509         0.596355     -0.315905     -0.567475
O       5.68846     15.32170      7.09895        -0.164216      0.026931      0.349617
O       5.82577      3.79416     11.65213        -1.457290      0.276031     -1.121958
O       5.81928     15.35382     11.44910        -0.158705     -0.327907      0.243701
O       5.83348      7.69032      2.70742        -0.539222     -0.649154     -0.438301
O       5.75342      7.65568     15.80907        -0.415826      0.374885      0.569989
O       5.77382      7.69737      7.06975         0.010059     -0.980153      0.314277
O       5.85890      7.56321     11.48803        -0.203227      2.184835      0.173168
O       5.69098     11.38988      2.83399         0.222591      1.094098     -0.218862
O       5.72707     11.57016     15.86765         0.249600     -1.495547     -0.083980
O       5.64521     11.45904      7.20455         0.429108     -0.360122     -0.097395
O       5.71473     11.47079     11.48632        -0.285856      0.413379      0.082196
O       9.58783      3.91542      2.67464        -0.023795     -1.823219      0.638234
O       9.46402      3.90593     15.93393         0.601597     -0.402004     -1.714134
O       9.76547     15.31299      2.71862        -1.470227      1.108480      0.014605
O       9.51321     15.34387     15.72143        -0.015518      0.932198      0.548009
O       9.59798      3.78474      7.08178        -0.156579     -0.013256      0.528418
O       9.53826     15.35322      7.10272        -0.057780      0.745390     -0.358721
O       9.55543      3.84138     11.38195        -0.039072     -0.598529      0.398539
O       9.62816     15.28680     11.63223        -0.992629      0.491426     -0.527557
O       9.54722      7.64406      2.83533         0.114759      0.445242     -0.065217
O       9.54560      7.65169     15.79984         0.206501     -0.051785     -0.177384
O       9.68412      7.58752      7.16763        -0.503157      0.832411      0.096157
O       9.62571      7.73344     11.51509        -0.763528     -1.070738     -0.099376
O       9.56542     11.50013      2.82256         0.030207      0.076188     -0.254415
O       9.56494     11.48829     15.82311         0.381783      0.645688     -0.217968
O       9.52481     11.58605      7.27700         0.231447     -1.287594     -0.296200
O       9.61870     11.43041     11.58439        -1.050079      1.803675     -0.767887
