  # total energy = -7885.82252073 
CRSYTAL
PRIMVEC
    15.3600000000000000    0.0000000000000000    0.0000000000000000
     0.0000000000000000   15.3600000000000000    0.0000000000000000
     0.0000000000000000    0.0000000000000000    17.440000000000000
PRESSURE
0.530477 0.555685 2.56977 -0.159258 -0.062913 -0.00108
PRIMCOORD
320 1
Pb       3.81491      3.82435      4.34612         0.035664      0.219947     -0.311042
Pb       3.85734      3.82054     17.39507        -0.257402     -0.101514     -0.257267
Pb       3.82527     15.34677      4.32766        -0.284027     -0.279193     -0.127348
Pb       3.84248     15.35533     17.41207        -0.268776     -0.109324     -0.436014
Pb      15.33096      3.82144      4.34473         0.192806      0.000860     -0.160230
Pb      15.35934      3.82122     17.42950         0.149552      0.120683     -0.407078
Pb      15.34721     15.33609      4.33224        -0.074343     -0.018761     -0.310953
Pb      15.29571     15.33675     17.41716         0.173265      0.038054     -0.494002
Pb       3.81745      3.84394      8.66692        -0.282723     -0.149385     -0.334543
Pb       3.82093     15.33545      8.72047         0.141332      0.151265     -0.360010
Pb      15.28236      3.82888      8.67446         0.406698      0.194857     -0.391096
Pb      15.32959      0.02123      8.68906        -0.201048     -0.244641     -0.737477
Pb       3.83772      3.81111     13.03480        -0.219169     -0.245277     -0.741303
Pb       3.81533     15.31612     13.03954         0.027309     -0.053058     -0.163565
Pb      15.33242      3.79648     13.06060         0.010241      0.055269     -0.375129
Pb      15.34305     15.35601     13.01842        -0.022161     -0.088681      0.048160
Pb       3.83697      7.67658      4.31550         0.020464     -0.485750     -0.116081
Pb       3.80577      7.66409     17.43313        -0.238771     -0.104429     -0.747545
Pb       0.01861      7.66096      4.32496        -0.020267      0.134676     -0.410443
Pb      15.34458      7.69578     17.39359        -0.191876     -0.231312     -0.149587
Pb       3.85255      7.64478      8.69151         0.023400      0.200447     -0.285555
Pb      15.33803      7.65322      8.68943        -0.014666     -0.152611     -0.348414
Pb       3.82679      7.65975     13.06079        -0.351889      0.029764     -0.780065
Pb      15.35659      7.66860     13.05726        -0.066570     -0.110672     -0.495456
Pb       3.79076     11.48912      4.32576         0.167285      0.362345     -0.321592
Pb       3.85890     11.46251     17.39844        -0.224243      0.288338     -0.751221
Pb       0.01326     11.52991      4.30001        -0.107231     -0.064657     -0.586761
Pb      15.33277     11.49125     17.40208         0.048926     -0.069396     -0.369431
Pb       3.81207     11.52580      8.70237         0.143222     -0.248632     -0.605510
Pb      15.34649     11.47451      8.68835        -0.033890      0.039898     -0.733738
Pb       3.85081     11.50662     13.04567        -0.091619     -0.039682     -0.589529
Pb       0.00115     11.49474     13.06983         0.231523      0.148392     -0.362618
Pb       7.66572      3.79587      4.34689        -0.219954      0.251308     -0.425089
Pb       7.68635      3.84476     17.37538        -0.294424     -0.329203     -0.339259
Pb       7.65809      0.00291      4.32030         0.490339     -0.168869      0.198158
Pb       7.61273     15.34223     17.39956         0.420449      0.092702     -0.798179
Pb       7.66435      3.82053      8.69424        -0.314452     -0.031797     -0.693491
Pb       7.67237     15.32192      8.68383        -0.176236      0.278683     -0.509868
Pb       7.69262      3.84773     13.08998         0.093484     -0.232664     -0.402421
Pb       7.67508      0.00667     13.04713        -0.064504      0.097957     -0.299512
Pb       7.63697      7.64507      4.31779         0.169261     -0.152578     -0.334849
Pb       7.66363      7.65520     17.41268         0.112143     -0.001178      0.076766
Pb       7.64782      7.69630      8.67489         0.023296     -0.093875     -0.199635
Pb       7.65414      7.64765     13.04453         0.357672      0.341047     -0.829897
Pb       7.65472     11.48837      4.32952         0.283382     -0.407531     -0.228894
Pb       7.64682     11.53077     17.38697         0.209883     -0.032870     -0.192732
Pb       7.67998     11.49692      8.69530        -0.049728     -0.273201     -0.438932
Pb       7.70579     11.53814     13.06458        -0.159321     -0.411090     -0.742766
Pb      11.52388      3.80156      4.33964        -0.212585      0.011455     -0.609073
Pb      11.50111      3.82325     17.42080         0.020659      0.037286     -0.213577
Pb      11.50724      0.00027      4.30584         0.303627     -0.384266     -0.266180
Pb      11.49547     15.33871     17.36588        -0.333029     -0.006177      0.161296
Pb      11.52120      3.86582      8.68713        -0.018230      0.049487     -0.292964
Pb      11.50055     15.32773      8.68644         0.183737     -0.173610     -0.830386
Pb      11.50762      3.79827     13.08299        -0.207418      0.389698     -0.407606
Pb      11.47853     15.34007     13.04045         0.041387     -0.096203     -0.061885
Pb      11.52290      7.66928      4.31414        -0.473921      0.030158     -1.037917
Pb      11.48317      7.64831     17.42038         0.095899     -0.157906     -0.228618
Pb      11.51561      7.66402      8.68455        -0.087169     -0.424878     -0.124245
Pb      11.48074      7.67425     13.03654         0.145346     -0.288918     -0.331721
Pb      11.51829     11.47712      4.34668        -0.366762      0.310464     -0.604921
Pb      11.48069     11.49809     17.40404        -0.062535     -0.008297     -0.080105
Pb      11.49875     11.49889      8.72216        -0.154827      0.322171     -0.545049
Pb      11.50079     11.50317     13.02592        -0.290103     -0.232170     -0.121796
Ti       1.94248      1.94226      2.31789        -0.452210     -0.573973     -0.313198
Ti       1.94995      1.91513     15.35364        -0.342967     -0.390029      2.632542
Ti       1.89670     13.42223      2.23430        -0.026248      0.137515      0.690419
Ti       1.88605     13.46704     15.39674        -0.034901     -0.489837     -0.359401
Ti      13.48282      1.90626      2.33764        -0.624622     -0.311152      0.616825
Ti      13.43882      1.94622     15.38608         0.193458     -0.612076     -0.239297
Ti      13.41492     13.37432      2.30111        -0.506427      0.561375      0.707184
Ti      13.38992     13.44540     15.33896         0.555000     -0.161596      0.936612
Ti       1.92428      1.86770      6.65607        -0.561002      1.046179      0.512911
Ti       1.90017     13.39734      6.67436        -0.604370      0.308992      0.659366
Ti      13.43674      1.93002      6.65909         0.331171     -0.762597      0.186265
Ti      13.39947     13.39137      6.63934         0.047766      0.905904      1.147654
Ti       1.84687      1.86245     10.98493         0.663967      1.183874      1.554971
Ti       1.88207     13.43031     10.98560         0.259652     -0.301850      1.844156
Ti      13.37970      1.86115     11.03042         0.964243      0.552304      0.087708
Ti      13.42055     13.37510     11.03338        -0.417784      0.337498      1.485335
Ti       1.85207      5.74879      2.31228         0.554441     -0.028141      1.188483
Ti       1.88589      5.72890     15.33904        -0.328409     -0.041715      1.138811
Ti      13.41584      5.75045      2.30879        -0.265523      0.119018      0.132170
Ti      13.41853      5.72663     15.35128        -0.346589      0.305630      2.014370
Ti       1.87776      5.80933      6.60442        -0.528083     -1.361102      1.130292
Ti      13.38213      5.79420      6.62622         0.829829     -0.690203      1.034187
Ti       1.89109      5.73720     11.00413        -0.122487     -0.272687      1.785155
Ti      13.46750      5.68215     11.06476        -0.877046      0.513015      0.158780
Ti       1.95591      9.58957      2.27619        -1.043528     -0.452083      1.895662
Ti       1.87625      9.56855     15.34313         0.135220      0.236007      1.659402
Ti      13.44234      9.55786      2.29404         0.213283      0.293950      0.779116
Ti      13.34560      9.57773     15.37604         0.444705     -0.363418      1.975137
Ti       1.86888      9.54763      6.61868         0.335478      0.534982      2.154106
Ti      13.34158      9.62020      6.62096         1.532556     -0.175735      1.337711
Ti       1.87066      9.60113     10.96809         0.514139     -0.526939      3.095906
Ti      13.41313      9.54908     11.01609         0.002237     -0.462830      0.434076
Ti       5.71183      1.82796      2.29136         0.517870      1.388571      0.786364
Ti       5.70802      1.86753     15.34242         0.683455      0.347496     -0.142244
Ti       5.73693     13.40366      2.33603         0.159947     -0.630126      0.053797
Ti       5.71484     13.39582     15.31893        -0.003353      0.248634      1.634867
Ti       5.68598      1.89877      6.63743         0.961526      0.168176      1.476338
Ti       5.67955     13.42254      6.63504         0.442328      0.162939      0.348548
Ti       5.69920      1.89990     11.05413         0.861418     -0.134121     -0.494548
Ti       5.72285     13.43695     10.99729         0.039488     -0.707641      1.153099
Ti       5.73193      5.70375      2.25236        -0.092579     -0.197791      1.189875
Ti       5.68070      5.76691     15.36504         0.317201     -0.991843      2.549830
Ti       5.69414      5.80816      6.70180         0.903151     -0.839922      0.153043
Ti       5.72206      5.72280     11.05506         0.435087      0.112406      0.303936
Ti       5.69401      9.54699      2.29229         1.848477      0.279391      1.755802
Ti       5.76695      9.55588     15.34963        -1.082916      0.407354      1.996612
Ti       5.72973      9.59943      6.60546         0.266697     -0.342700      1.586337
Ti       5.67885      9.50168     11.02050         1.280799      1.248250      0.578272
Ti       9.58723      1.88495      2.37623         0.462090      0.088353     -0.935865
Ti       9.58846      1.95173     15.39100        -0.401238     -0.830358      1.544338
Ti       9.55662     13.39350      2.31897         0.679066     -0.149597     -0.418474
Ti       9.58158     13.39212     15.35164        -0.725092      0.537456      1.461260
Ti       9.55759      1.91557      6.64586        -0.029205     -0.411945      0.389972
Ti       9.50723     13.37634      6.67712         0.984425      0.477347      0.595365
Ti       9.58215      1.91627     11.00228        -0.335580     -0.078735      2.435313
Ti       9.54926     13.41691     11.03752         0.100631      0.151749     -0.313168
Ti       9.53963      5.72443      2.24342         0.084778      0.661756      1.159579
Ti       9.51979      5.74787     15.37959         1.061303     -0.130803     -0.214299
Ti       9.55496      5.72330      6.62845        -0.463675     -0.027824      1.821519
Ti       9.54654      5.72783     11.04110         1.336436      0.052238      0.581682
Ti       9.57079      9.58029      2.29316         0.015821     -0.238911      0.776525
Ti       9.53238      9.52262     15.36238         0.563883      1.062891      0.215294
Ti       9.61224      9.55234      6.66392        -1.089765      0.587285     -0.288042
Ti       9.60676      9.52468     10.94838        -1.066350      0.615957      1.732412
O       1.99590      1.85990      0.54428        -0.269634      0.082613      0.256317
O       2.00155      1.82749     13.67647        -0.050726      0.212405     -2.482830
O       1.85564     13.44902      0.48925         0.088495     -0.062241     -0.411033
O       1.86356     13.53145     13.59902         0.026519     -0.495903      0.381608
O      13.46845      1.99417      0.61193         0.108316     -0.324137     -1.264219
O      13.49357      1.88741     13.60554        -0.347645      0.021169      0.563847
O      13.36840     13.37406      0.56185         0.274055      0.193345     -0.570799
O      13.50744     13.49266     13.59745        -0.268206     -0.287208     -0.539131
O       1.86137      1.98188      4.90324         0.304363     -0.448804     -0.509765
O       1.86401     13.39657      4.93256         0.407037     -0.170487     -0.782972
O      13.48201      1.81624      4.87739        -0.166448      0.500284      0.326043
O      13.35338     13.45093      4.91230         0.431146     -0.276832     -0.961471
O       1.98907      1.93697      9.29222        -0.212851     -0.254043     -1.569084
O       1.88299     13.48645      9.27071         0.261166     -0.432463     -1.045295
O      13.51538      1.95292      9.24151        -0.577325     -0.212006      0.752681
O      13.35028     13.49584      9.33862         0.044537     -0.518486     -1.505504
O       1.86922      5.64337      0.60595         0.047888      0.385606     -1.401866
O       1.87152      5.76260     13.59742         0.340799      0.118899     -0.804855
O      13.43983      5.77152      0.56525        -0.029108     -0.263297     -0.371214
O      13.47242      5.73643     13.65124        -0.001014     -0.228740     -1.601358
O       1.84718      5.72117      4.88345        -0.021439      0.094538     -1.191124
O      13.55899      5.72186      4.89534        -0.753481      0.299009     -0.631754
O       1.85765      5.80619      9.31416         0.095243     -0.016036     -2.070783
O      13.42814      5.72423      9.30336        -0.169195     -0.020949     -0.526239
O       1.76880      9.63773      0.59869         0.781059     -0.483381     -2.122329
O       1.91593      9.60442     13.61245        -0.106202     -0.277114     -0.822953
O      13.31530      9.53373      0.57303         0.367435      0.016362     -1.201363
O      13.35463      9.56105     13.68662         0.236058      0.042799     -1.922588
O       2.02816      9.49981      4.93380        -0.330932      0.526564     -2.028329
O      13.47456      9.60980      4.90071        -0.358942     -0.093586     -0.875459
O       1.85337      9.55413      9.29244         0.215155      0.271423     -2.765313
O      13.34133      9.58939      9.25577         0.157037     -0.066143     -0.010537
O       5.68291      1.76126      0.54986         0.227615      0.180323     -0.297419
O       5.73284      1.87547     13.56111        -0.178803      0.223137     -0.150325
O       5.64550     13.35336      0.58252         0.546480      0.263821     -0.413124
O       5.72610     13.41548     13.61828        -0.029274      0.010922     -1.863863
O       5.68218      1.89514      4.91124         0.131026     -0.221982     -0.966379
O       5.57759     13.48339      4.88920         0.258149     -0.124608     -0.630828
O       5.76958      1.92459      9.27649        -0.199843      0.082933     -0.010473
O       5.72520     13.43556      9.26970        -0.074974     -0.170437     -1.321847
O       5.83810      5.76168      0.51781        -0.368473     -0.039815     -0.766281
O       5.76700      5.72946     13.67244        -0.238474      0.066033     -2.151989
O       5.82582      5.80373      4.99545        -0.423901      0.022781     -1.318909
O       5.73285      5.76997      9.34183         0.012048     -0.089893     -2.063948
O       5.69445      9.60907      0.58683        -0.033343     -0.278863     -1.745428
O       5.79276      9.60418     13.66490        -0.213621     -0.391322     -2.271936
O       5.84248      9.46078      4.90524        -0.345129      0.183361     -1.483449
O       5.74589      9.52030      9.29701        -0.223811      0.101369     -1.397185
O       9.63368      1.84576      0.60024        -0.348119      0.061668     -0.141597
O       9.60930      1.97287     13.69355        -0.010506     -0.034051     -1.726045
O       9.58933     13.40901      0.53154        -0.309317      0.036862      0.265298
O       9.47921     13.38458     13.63041         0.219646     -0.095287     -1.162799
O       9.55583      2.06623      4.88846         0.245684     -0.444515     -0.454731
O       9.58644     13.35140      4.96372         0.019212     -0.084505     -1.394973
O       9.60751      1.89826      9.30830         0.088115      0.090900     -1.806018
O       9.56345     13.46457      9.24111        -0.022457     -0.137143      0.390320
O       9.59401      5.89161      0.51628        -0.494714     -0.533531     -1.174705
O       9.45383      5.63841     13.59878         0.280865      0.559885      0.438676
O       9.61774      5.73026      4.92352         0.053455     -0.116437     -1.312031
O       9.58484      5.74497      9.30917         0.039729     -0.244784     -1.162157
O       9.51404      9.56683      0.55053         0.093434     -0.042427     -0.809073
O       9.56410      9.64835     13.60444        -0.148979     -0.391905      0.031295
O       9.60814      9.71520      4.89461         0.253066     -0.493673      0.159890
O       9.51597      9.60722      9.22036         0.489838     -0.002373     -1.063093
O       3.82063      1.91939      2.74516         0.279815     -0.642467      0.112371
O       3.85194      1.88542     15.79649        -0.391752      0.320894      0.154129
O       3.88839     13.40783      2.68113        -0.983119      0.257642      0.366869
O       3.82764     13.47002     15.75369        -0.001130     -0.902101      0.208392
O       0.00915      1.88365      2.70618         0.216584      0.091300      0.126219
O       0.00702      1.87579     15.69328        -0.193882     -0.307243      0.581190
O       0.02460     13.46641      2.74787        -0.505330     -0.701773     -0.119395
O      15.33374     13.38722     15.76067        -0.191740      0.420505      0.279698
O       3.81373      1.94906      7.06823         0.206747     -0.155248      0.183347
O       3.78478     13.53975      7.07651         0.404804     -0.926146      0.377989
O       0.02764      1.85714      7.09071        -0.770593      0.364076      0.178695
O       0.01918     13.40159      7.07597        -0.618405     -0.114809      0.300083
O       3.86799      1.95303     11.44406        -1.042428     -0.223661      0.206331
O       3.82932     13.43125     11.40994        -0.639545     -0.203393      0.104165
O      15.30836      1.94513     11.46924         0.253504     -0.642691     -0.178519
O      15.33755     13.34972     11.37290        -0.224785      0.076367      0.207619
O       3.77854      5.68806      2.72195         0.728554      0.370794      0.014002
O       3.77257      5.72105     15.84820         0.270318     -0.057272     -0.167432
O      15.31915      5.77968      2.67902         0.167128     -0.336266      0.349430
O       0.02920      5.64911     15.74644        -0.844883      0.334444      0.284640
O       3.74618      5.75850      7.03124         0.682588      0.271440      0.404015
O      15.32458      5.75120      7.07553        -0.504367      0.243276      0.182806
O       3.84362      5.77897     11.36188        -0.602673     -0.103080      0.766207
O      15.32651      5.66396     11.38897         0.447561      0.336903      0.544092
O       3.89209      9.48138      2.72819        -0.975008      0.451422      0.108215
O       3.79159      9.53467     15.76284         0.026330      0.067228      0.379624
O       0.08996      9.61392      2.64139        -1.212620     -0.015035      0.766897
O      15.33715      9.44292     15.81970        -0.741409      0.709486     -0.292472
O       3.80571      9.55076      6.99666         0.255413      0.153398      0.538680
O      15.32260      9.66878      7.04264        -0.349418     -0.350552      0.176109
O       3.81207      9.60594     11.40001        -0.334197     -0.584620      0.381966
O       0.03180      9.55753     11.38144        -1.368139      0.213465      0.369477
O       7.73313      1.88783      2.74280        -0.955718      0.170062      0.126724
O       7.62869      1.89872     15.74196         0.417538      0.192168      0.509863
O       7.65166     13.33002      2.79953         0.307325      0.464113     -0.236891
O       7.63790     13.34777     15.77816         0.013244      0.390008      0.265151
O       7.65542      1.90082      7.10151        -0.262044      0.033710     -0.013205
O       7.63874     13.40732      7.01336        -0.621136      0.012056      0.359423
O       7.71243      1.85535     11.43082        -0.495874      0.149315      0.139944
O       7.58727     13.49411     11.48810         1.034158     -0.501284     -0.146553
O       7.60989      5.73427      2.74809         0.295949     -0.338103     -0.163029
O       7.65693      5.68224     15.78173        -0.469499      0.488536      0.220156
O       7.64131      5.81390      7.06665         0.441495     -0.358128      0.402726
O       7.75932      5.79109     11.43331        -2.175690     -0.181360      0.461470
O       7.72083      9.61073      2.73740        -0.964012     -0.067798      0.064643
O       7.59114      9.50373     15.79178         0.814721     -0.048317      0.158031
O       7.69824      9.65177      7.08726        -0.524845     -0.449429      0.103669
O       7.71054      9.49918     11.41550        -0.309773      0.342622      0.225384
O      11.53227      1.89160      2.67761        -0.096842      0.202845      0.745257
O      11.51457      1.77375     15.84039         0.143468      1.018636     -0.224837
O      11.50457     13.34106      2.71904         0.100177      0.466910      0.228007
O      11.47789     13.43103     15.72318         0.211018     -0.247956     -0.004794
O      11.58682      1.87472      7.06896        -1.132386      0.058636      0.023595
O      11.53977     13.41991      7.02007        -0.776952      0.085974      0.709437
O      11.53473      1.84660     11.59262        -0.382542      0.584927     -0.734750
O      11.49166     13.33737     11.46903         0.002613      0.410425      0.062434
O      11.44955      5.77691      2.58210         0.850170      0.224543      0.826645
O      11.43989      5.66979     15.79222         0.635293      0.205937     -0.049723
O      11.45253      5.64752      7.13188         0.437464      0.641774     -0.307744
O      11.50373      5.65966     11.47277         0.120674      0.278897      0.218607
O      11.53049      9.51497      2.65458        -0.133168     -0.019040      0.682632
O      11.44490      9.53669     15.73322         0.409393      0.244614      0.336270
O      11.49698      9.62525      7.07793        -0.024219     -0.148625      0.091621
O      11.49877      9.46304     11.45319         0.103661      0.622369     -0.105590
O       1.91538      3.81158      2.67098        -0.291904     -0.094552      0.405837
O       1.89282      3.79994     15.78582         0.363187      0.063348     -0.048457
O       1.88073     15.27888      2.69563         0.535434      0.793019      0.195829
O       2.01977     15.29309     15.73549        -0.705457      0.933421      0.523635
O      13.40250      3.84934      2.76820         0.174154     -0.140967      0.046065
O      13.46287      3.80875     15.83795        -0.432265     -0.381387     -0.036117
O      13.42709     15.31227      2.71044         0.038821      0.227977      0.048189
O      13.38517     15.32920     15.83915         0.518466     -0.003956     -0.010248
O       1.84267      3.84076      7.03377         0.297123      0.008766      0.372096
O       1.90307      0.00073      7.10155         0.068841     -0.173402     -0.005923
O      13.37397      3.86329      7.06925         0.443271     -0.446640     -0.091319
O      13.46523     15.31045      7.10847        -0.003061      0.383078      0.169446
O       1.89185      3.78896     11.32073         0.272625      0.136022      0.777576
O       1.88504     15.35485     11.40160         0.013687     -0.452133      0.049514
O      13.48842      3.81434     11.52024        -0.665429     -0.707596     -0.156689
O      13.35809     15.30905     11.39584         0.379267      0.189804      0.135881
O       1.88436      7.67978      2.81639         0.361622     -0.385820     -0.487541
O       1.80065      7.64512     15.89806         0.987553     -0.291655     -0.420175
O      13.51952      7.70253      2.71814        -0.410270     -0.783948      0.493261
O      13.31220      7.57522     15.69821         0.493994      0.881875      0.508327
O       1.81926      7.68877      7.02071         0.095073     -0.165779      0.405178
O      13.36117      7.64269      7.10648        -0.083726      0.668243     -0.238194
O       1.83853      7.63769     11.38275         0.377201      0.412390      0.568996
O      13.45074      7.62918     11.48452        -0.004625      0.246240      0.097387
O       1.91938     11.48806      2.62585         0.616374      0.500081      0.716863
O       1.87125     11.45761     15.85811         0.094357      0.171729     -0.359002
O      13.43952     11.48231      2.66558         0.318642     -0.017866      0.514338
O      13.46578     11.49319     15.84391        -0.462175     -0.048783     -0.437558
O       1.92275     11.50986      7.10546         0.236729     -0.263070      0.218319
O      13.40271     11.49968      7.09847         0.014711     -0.118733      0.130238
O       1.90550     11.48599     11.52466         0.050860      0.582124     -0.492413
O      13.37042     11.37548     11.51185         0.326766      1.159686     -0.182408
O       5.71226      3.76128      2.68331         0.268060      0.299867      0.055133
O       5.76014      3.78669     15.85468        -0.307261      0.487993     -0.113226
O       5.94601      0.01714      2.74355        -1.142162     -0.987779     -0.125568
O       5.67818      0.00777     15.70472         0.549220     -0.838060      0.453753
O       5.76952      3.84803      6.93966        -0.263856     -0.192836      0.827173
O       5.69394     15.30779      7.04161         0.251712      0.701498      0.259841
O       5.72450      3.86464     11.37630         0.380774     -0.674426      0.671049
O       5.70970     15.33455     11.33739        -0.017338      0.259448      0.460615
O       5.77205      7.59263      2.73193        -0.152378      0.571963     -0.199867
O       5.56675      7.61030     15.73471         0.771389      0.453646      0.268738
O       5.74972      7.69005      7.11141        -0.221153      0.167269      0.348097
O       5.74482      7.63107     11.33737        -0.031745      0.092486      1.224506
O       5.77558     11.45619      2.68369        -0.454142      0.208805      0.448890
O       5.76285     11.48719     15.67954        -0.431977     -0.277196      0.595786
O       5.75059     11.49108      6.89553        -0.560299      0.300894      0.688173
O       5.71922     11.42497     11.33122         0.162562      0.920169      0.603823
O       9.57394      3.86579      2.67216         0.127975     -0.586917      0.202293
O       9.64983      3.86072     15.80274        -0.571410     -0.674926      0.399252
O       9.63353     15.29568      2.75002        -0.384697      0.184313      0.264790
O       9.51337      0.00129     15.68462         0.110623     -0.628683      0.488589
O       9.53567      3.78240      7.03735         0.155358      0.532492      0.535989
O       9.47671      0.01019      6.97063         0.687509     -0.178119      0.526161
O       9.53248      3.80461     11.54298         0.430720     -0.390147     -0.474017
O       9.59140     15.32354     11.41663         0.284655      0.101945      0.362757
O       9.50488      7.65373      2.65606         0.377534     -0.060373      0.566877
O       9.59918      7.67092     15.80772        -0.477806     -0.486192     -0.216330
O       9.58739      7.66561      6.96882         0.356091     -0.084584      0.375454
O       9.58716      7.68887     11.36036         0.328772     -0.731133      0.444337
O       9.66967     11.51380      2.66103        -0.315751     -0.369247      0.324776
O       9.59532     11.45193     15.81351        -0.391131      0.214223     -0.006070
O       9.55232     11.49918      7.08307         0.384432     -0.032228      0.543373
O       9.59994     11.55283     11.41722        -0.253380     -0.813603      0.024454
