  # total energy = -7864.90884849 
CRSYTAL
PRIMVEC
    15.010000000000000    0.0000000000000000    0.0000000000000000
     0.0000000000000000   15.010000000000000    0.0000000000000000
     0.0000000000000000    0.0000000000000000    16.400000000000000
PRESSURE
15.363 15.2996 6.04809 -0.219771 -0.043765 0.017142
PRIMCOORD
320 1
Pb       3.91875      3.74466      4.38197        -0.123504     -0.165577     -0.160016
Pb       3.81013      3.78400      0.17844        -0.003757     -0.103429     -0.659197
Pb       3.63978      0.12982      4.13636         1.042236     -0.455867      0.020309
Pb       3.67959      0.02126     16.37643         0.420274     -0.215521      0.227628
Pb       0.00029      3.66635      4.03828        -0.284662      0.393914      0.660881
Pb       0.06811      3.76895     16.37638        -0.343085     -0.026468      0.030912
Pb       0.07687      0.00526      4.10991        -0.344834     -0.303298      0.552196
Pb      14.91347      0.01572      0.02280        -0.025279      0.207777     -0.413925
Pb       3.82699      3.70223      8.32429         0.748199      0.190256     -0.375604
Pb       3.77462     14.79446      8.33298         0.289722      0.905860     -0.244667
Pb       0.18528      3.79988      8.32377        -1.056954     -0.276265     -1.071823
Pb       0.06859     14.90450      8.26560        -0.229690      0.377652     -0.409035
Pb       3.72142      3.77974     12.24000         0.446078     -0.276821      0.143580
Pb       3.75092     14.98208     12.50503        -0.328575      0.567599     -0.697503
Pb       0.08674      3.71874     12.31146        -0.041854     -0.066613      0.204026
Pb       0.02889      0.02042     12.32561        -0.041376     -0.180747      0.152802
Pb       3.52630      7.49397      4.12382         0.609397     -0.079466      0.346366
Pb       3.70597      7.36530      0.25303         0.271227      0.402461     -0.670369
Pb      14.83706      7.46622      4.10789         0.476826      0.159538      0.021701
Pb      14.91070      7.54806      0.02872         0.337677      0.305820      0.013514
Pb       3.70804      7.48986      8.11331        -0.042477      0.018580      0.038211
Pb      14.96708      7.47010      8.26532         0.356301      0.014021     -0.403732
Pb       3.74694      7.58752     12.31380         0.051354     -0.731521     -0.169100
Pb       0.07711      7.35687     12.36635        -0.004566      0.750007     -0.611546
Pb       3.51959     11.35724      4.16145         0.720914     -0.225063      0.006387
Pb       3.66551     11.13948     16.32207         0.492051      0.242790      0.169637
Pb      14.91990     11.30462      4.08367        -0.003034     -0.173527      0.777769
Pb      14.86703     11.33589      0.01674         0.619488     -0.810352     -0.052777
Pb       3.65882     11.13951      8.33682         0.674166     -0.081093     -0.953662
Pb      14.95000     11.14927      8.29307        -0.031553      0.177096     -0.693116
Pb       3.69485     11.33545     12.37790         0.475449     -0.738950      0.085370
Pb      14.98746     11.29194     12.35304        -0.104634     -0.150226     -0.280520
Pb       7.59067      3.63820      4.21733        -0.980576     -0.201787      0.435380
Pb       7.58079      3.81148     16.39506        -0.727777     -0.159534      0.317718
Pb       7.49274     14.99035      4.24416        -0.178213      0.104943     -0.158698
Pb       7.40959      0.07180      0.03904        -0.172768     -0.090337      0.492225
Pb       7.57683      3.67848      8.25001        -0.654186     -0.006362     -0.144408
Pb       7.56560     14.91640      8.32378         0.103993     -0.064363     -0.131750
Pb       7.55792      3.71114     12.25835        -0.361067     -0.178511     -0.132987
Pb       7.59355     14.87543     12.48333         0.125261      0.357683     -0.923379
Pb       7.29921      7.57139      4.08964         0.428677     -0.710937      0.559265
Pb       7.50872      7.53163      0.10802        -0.280507     -0.485109      0.080513
Pb       7.45692      7.52833      8.38081        -0.247152      0.013188     -1.070572
Pb       7.56236      7.39424     12.53134        -0.556145      0.193443     -0.989466
Pb       7.39543     11.36445      4.08783        -0.248159     -0.076722      0.319403
Pb       7.52961     11.27445      0.09558        -0.398584     -0.318691     -0.231705
Pb       7.35827     11.16096      8.34910         0.024850      0.483643     -0.286012
Pb       7.51165     11.12768     12.44308        -0.127593      0.664631     -0.605056
Pb      11.16301      3.72361      4.14291         0.550332      0.270367      0.168394
Pb      11.26251      3.76777     16.39441         0.232506      0.396501     -0.167508
Pb      11.29982      0.06503      4.22428        -0.491296     -0.504034     -0.111400
Pb      11.07618     15.00643      0.14079         0.655579     -0.141198     -0.043996
Pb      11.36093      3.80394      8.16315         0.112550     -0.387619     -0.385767
Pb      11.25837     14.87901      8.30689         0.005003      0.505726     -0.433848
Pb      11.35478      3.73182     12.25940        -0.290103      0.200773      0.028967
Pb      11.30094      0.13842     12.30346         0.176382     -0.690690     -0.384352
Pb      11.15146      7.44932      4.18739         0.596975      0.327260     -0.136351
Pb      11.13531      7.51691      0.13988         0.430274     -0.154957     -0.168332
Pb      11.11758      7.48544      8.20554         0.403134      0.053810      0.036297
Pb      11.37751      7.39228     12.30951        -0.142913      0.482260     -0.067797
Pb      11.22559     11.29049      4.18215         0.474331     -0.255060     -0.368222
Pb      11.23478     11.14906      0.06344        -0.012490      0.293316      0.579128
Pb      11.04304     11.09342      8.31998         0.461682      0.263718     -0.753855
Pb      11.24131     11.27464     12.27341         0.262343     -0.189237      0.206393
Ti       1.86966      1.88752      2.09764        -0.640195     -0.038277     -0.868489
Ti       1.95334      1.93638     14.46239        -0.682761     -0.940632     -1.334302
Ti       1.89344     13.13742      1.98280        -0.672228     -0.470080     -0.092121
Ti       1.85622     13.15789     14.36940        -0.555816      0.192327      0.348014
Ti      13.09508      1.91536      1.99660         0.462068     -0.377427     -0.369803
Ti      13.11320      1.93955     14.27737         1.237844     -1.405708      0.420594
Ti      13.12815     13.15818      2.04534        -1.486495     -0.084388      0.188010
Ti      13.07958     13.12615     14.40990         0.234524      1.453783     -0.913030
Ti       1.93246      1.87160      6.25984        -0.693485      0.416378      0.166254
Ti       1.89261     13.11378      6.21614        -0.840858     -0.093703     -0.637855
Ti      13.14646      1.86108      6.15455         0.937968      0.701635      0.933823
Ti      13.11499     13.09235      6.20079         0.241458     -0.467546     -0.430806
Ti       1.96761      1.86747     10.22218         1.130935     -1.240981      0.336266
Ti       1.98281     13.05019     10.27239        -1.666500      1.345085     -0.018778
Ti      13.25540      1.93106     10.23585        -0.878414     -1.584805     -0.846077
Ti      13.17382     13.09916     10.20889         0.470217      0.689381      0.253831
Ti       1.82132      5.61620      2.06536        -0.513164      0.281511      0.287766
Ti       1.92405      5.63860     14.31081        -0.036827     -0.778640      0.227276
Ti      13.11135      5.66332      2.03217         0.076800     -0.847078     -0.294119
Ti      13.17937      5.64708     14.38367        -0.036241     -0.182455      0.232239
Ti       1.82544      5.61782      6.13958         0.227310      0.387278      0.057403
Ti      13.10489      5.65957      6.13319         1.018039     -1.513050     -0.299225
Ti       1.95467      5.59148     10.19232         0.533369      1.064750     -0.224760
Ti      13.14899      5.64888     10.18699         0.636424     -0.025640     -0.686028
Ti       1.86995      9.45041      2.07300        -0.791991     -0.581208     -0.454228
Ti       1.92568      9.33539     14.40972        -1.319052     -0.188762     -0.276617
Ti      13.13440      9.41095      2.10053        -0.236466     -0.168449     -0.091900
Ti      13.10055      9.40926     14.24835         0.426727     -0.377577     -0.322943
Ti       1.77510      9.39156      6.10003         0.303135     -0.318021      0.605389
Ti      13.06370      9.33284      6.21341        -0.187919      0.515762     -0.807917
Ti       1.89120      9.34752     10.26282        -1.389965     -1.053146     -0.184885
Ti      13.06641      9.35026     10.20296         0.681903      0.476097      0.292168
Ti       5.55460      1.87660      2.04703         1.085011     -0.883621      0.341818
Ti       5.65051      1.90345     14.27990        -0.979018      0.329048      0.626141
Ti       5.56796     13.10845      1.96623         0.461843      0.758460      0.300680
Ti       5.67094     13.10125     14.38963         0.010163     -0.698318      0.352774
Ti       5.69566      1.78661      6.34412         0.520227      0.067599     -0.675490
Ti       5.63890     13.07347      6.24128         0.129665      0.001630     -0.542543
Ti       5.70243      1.78749     10.38756         0.299206      1.608443     -1.052895
Ti       5.67877     13.18112     10.42785         0.849596     -1.232434     -1.062053
Ti       5.55049      5.57428      2.26002         0.443349      1.056624     -0.544469
Ti       5.60495      5.62280     14.39333        -0.768376     -0.336886     -0.589364
Ti       5.68302      5.63732      6.23659        -1.534659      0.086177      0.205845
Ti       5.71116      5.65970     10.20611        -0.843994     -1.440754     -0.434358
Ti       5.55155      9.36932      2.05219        -0.156800      0.145834      0.095849
Ti       5.65039      9.32701     14.33589        -1.109259      0.267079      0.138508
Ti       5.60281      9.39661      6.04434        -1.102423     -0.406308      1.309768
Ti       5.57192      9.33904     10.30638         0.519567      0.684406     -0.110007
Ti       9.35010      1.93021      2.10464        -1.016782     -1.997170      0.215235
Ti       9.36712      1.86474     14.39551         0.554523      0.360916     -0.832119
Ti       9.32094     13.09463      2.09847         1.059897      0.789637      0.157520
Ti       9.43455     13.10518     14.40834        -0.511993     -0.062896     -0.493198
Ti       9.46970      1.85195      6.22120        -0.330448     -1.124162      0.437781
Ti       9.37066     12.99415      6.15846        -0.054950      1.994089      0.213222
Ti       9.46796      1.86178     10.21785        -0.706244     -0.642854     -0.575625
Ti       9.46728     13.05894     10.30144        -1.834733      1.032680     -0.551840
Ti       9.31230      5.62714      2.09929        -0.105631      0.114622      0.463155
Ti       9.38062      5.65004     14.30141         0.085337     -0.975992      0.443647
Ti       9.31030      5.65266      6.10306         0.159967     -0.936516     -0.387032
Ti       9.40463      5.60164     10.22576         0.311067     -0.125069     -0.184191
Ti       9.31090      9.35594      2.14604         0.207152      0.024782     -0.273448
Ti       9.41434      9.36430     14.36131         0.280325      0.050479      0.079915
Ti       9.29096      9.33822      6.10727        -0.135386     -0.029955     -0.316139
Ti       9.31553      9.33481     10.35491         0.289007     -0.754273     -0.043186
O       1.84875      1.85822      0.19263         0.107698     -0.005219      0.380479
O       2.08977      1.85476     12.51944        -0.563290     -0.160444      0.113985
O       1.89660     13.02605      0.12377        -0.182439      0.231659      0.199291
O       1.79839     13.18863     12.45208         0.359656     -0.497823      0.679720
O      13.19990      1.91518      0.11913        -0.290353     -0.181612      0.218776
O      13.14027      1.82882     12.37808         0.019513      0.322248      0.804520
O      13.02661     13.14235      0.15230        -0.031072     -0.280780     -0.289891
O      13.23787     13.15942     12.53887        -0.437964     -0.494383     -0.399739
O       1.86144      1.84455      4.37813         0.386414      0.050514     -0.716825
O       1.70635     13.12591      4.27081         0.582305      0.242693      0.378049
O      13.04914      1.92140      4.31171        -0.101023     -0.235103     -0.913879
O      13.15640     13.02174      4.27313        -0.453676      0.816042      0.221153
O       1.87970      1.81628      8.36539         0.090725      0.306291     -0.047429
O       1.95457     13.05313      8.35424        -0.309668      0.432204      0.222431
O      13.01124      1.89982      8.39276         0.575137     -0.182328      0.535128
O      13.06769     13.10825      8.37226         0.440910     -0.313258     -0.150285
O       1.81350      5.59162      0.17937         0.283331      0.062757      0.201073
O       1.89938      5.56397     12.43178        -0.137355      0.215340      0.159779
O      13.20268      5.59274      0.07770        -0.063105      0.185743      0.405176
O      13.19809      5.58919     12.48934        -0.361066      0.506167     -0.462187
O       1.64106      5.64446      4.28446         0.799106     -0.077667     -0.137777
O      13.20030      5.60858      4.22839        -0.540625     -0.151999      0.085741
O       1.84530      5.58007      8.27944         0.126978      0.089322      1.433450
O      13.10623      5.62747      8.28986         0.183293     -0.178341      1.174370
O       1.72563      9.48704      0.17829         0.456675     -0.393218      0.251083
O       1.91360      9.28156     12.55497        -0.160873      0.321227     -0.739746
O      13.21636      9.40645      0.18411        -0.778991     -0.031161      0.226760
O      12.99170      9.41206     12.31858         0.240728     -0.371347      1.767704
O       1.77434      9.30793      4.29330         0.152110      0.258664     -0.521845
O      12.97189      9.30676      4.30402         0.080108     -0.177804     -0.372018
O       1.95773      9.38813      8.40258        -0.658044      0.010945      0.236272
O      12.97966      9.36919      8.33305         0.387838      0.156671     -0.022902
O       5.60621      1.84998      0.16235        -0.131860      0.371047      0.490115
O       5.49527      1.81199     12.43259         0.584392     -0.091141      0.468839
O       5.63581     13.04120      0.09348         0.181163      0.258649      0.769955
O       5.65016     13.23189     12.51903        -0.013136     -0.443042     -0.426252
O       5.62000      1.87657      4.39960        -0.452082     -0.056184      0.366252
O       5.68095     12.99756      4.38893        -0.298339      0.326485     -0.792326
O       5.78415      1.85773      8.47209        -0.078138     -0.203347     -0.952609
O       5.68808     13.00703      8.48035        -0.266661      0.581803     -0.233111
O       5.43209      5.50588      0.29452         0.458447      0.547993     -0.089206
O       5.46612      5.59414     12.54385         1.109919      0.733935      0.133648
O       5.52090      5.73108      4.35916         0.308185     -0.697456     -0.600487
O       5.69521      5.60874      8.33742        -0.115190      0.119985      0.910938
O       5.49644      9.44318      0.21990         0.601029     -0.589826     -0.464279
O       5.52201      9.30313     12.44899         0.214245     -0.069394      0.864846
O       5.55544      9.35338      4.23417         0.285255      0.403442     -0.118666
O       5.60748      9.50158      8.42972        -0.031779     -0.500372      0.945215
O       9.27689      1.93341      0.25181         0.005752     -0.152782     -0.834468
O       9.35198      1.84509     12.55258         0.033054     -0.095233      0.426107
O       9.26911     13.01769      0.18535         0.337925      0.285313     -0.230287
O       9.36691     13.07371     12.50716        -0.115326      0.330679     -0.094916
O       9.45547      1.81485      4.34907         0.048079      0.365116     -1.041579
O       9.39902     13.10760      4.28135        -0.187569     -0.446931     -0.353278
O       9.49825      1.76103      8.33571        -0.287197      0.541815      0.590110
O       9.31107     13.12358      8.38896         0.351036     -0.367234      0.648643
O       9.28977      5.55909      0.22568         0.003180      0.186646      0.044778
O       9.24330      5.49445     12.44410         0.648488      0.614838      0.492138
O       9.19594      5.57388      4.21819         0.921589      0.330729      0.699587
O       9.33782      5.69995      8.38625         0.346383     -0.296884     -0.163449
O       9.27420      9.21284      0.15218         0.120706      0.602916      0.181534
O       9.46534      9.37505     12.49844        -0.365226     -0.273991     -0.051030
O       9.40280      9.29407      4.22541        -0.426572      0.064250      0.250985
O       9.31458      9.30636      8.45156        -0.009056     -0.186221      0.182935
O       3.65587      2.07321      2.39604         0.670838      0.394063     -0.038106
O       3.79347      1.48631     14.58508        -0.062951      0.013417     -0.061908
O       3.73453     12.91220      2.23232         0.106188     -0.559884      0.178588
O       3.76083     13.40553     14.53298        -1.163973     -0.207605     -0.193411
O      15.00195      1.57396      2.35628        -0.633812      0.220355     -0.310907
O       0.04616      2.18842     14.37962        -0.726775      0.227234      0.302631
O      14.93825     13.35734      2.07726         0.959163      0.012154      0.428750
O      14.95050     12.81405     14.56431         0.944092     -0.386807      0.059913
O       3.90670      2.11892      6.51769        -2.506488      0.147869     -0.418821
O       3.71312     12.71501      6.24344        -0.026546      0.529088      0.575930
O       0.05128      1.59651      6.34410        -0.900283     -0.256817      0.190796
O      14.96850     13.33710      6.38320         0.246559      0.461333      0.423192
O       3.82192      2.14626     10.29945        -0.463155      0.108247      0.309460
O       3.78167     12.84683     10.45393        -0.057371     -0.194155      0.252393
O       0.13290      1.60005     10.43241        -1.956290     -0.027501      0.061182
O       0.02931     13.38353     10.40674         0.029458      0.020132     -0.138100
O       3.66818      5.42375      2.38243        -0.559300     -0.408863     -0.031102
O       3.69302      6.04830     14.60189         1.015143     -0.548852     -0.032363
O      14.94911      5.86883      2.24812         0.363935      0.243284     -0.294747
O       0.00444      5.15438     14.39810         0.068755      0.724147      0.327629
O       3.74879      5.40465      6.37675        -0.700467     -0.303379     -0.209124
O      14.98643      5.96655      6.36393        -0.410789      0.021682     -0.018902
O       3.79607      5.34310     10.43987        -0.252210      0.005833     -0.429453
O       0.08708      5.89558     10.36074        -1.014649     -0.266595      0.239815
O       3.69454      9.66877      2.30154        -0.059232      0.059561     -0.156570
O       3.70978      9.03911     14.63276         0.688835     -0.283094      0.062221
O      14.97547      9.21174      2.25166        -0.425461     -0.373160      0.195557
O      14.95713      9.68404     14.46526        -0.516342      0.047112     -0.018657
O       3.67730      9.64844      6.29979         0.523288      0.306303      0.061592
O      14.90834      9.00334      6.34795         0.573735      0.008722      0.253353
O       3.71846      9.65885     10.46956         0.405712      0.169835      0.315389
O      14.93831      8.98787     10.36225         1.087111      0.517792      0.271262
O       7.38129      1.56871      2.42009         0.836528      0.604968     -0.722978
O       7.47319      2.23674     14.55605         0.182614     -0.507535     -0.031629
O       7.48705     13.40814      2.28504        -1.066668     -0.071347     -0.067455
O       7.52098     12.59600     14.49861        -0.397499      0.976684     -0.111185
O       7.61076      1.64983      6.32803        -0.979630     -0.456987      0.395359
O       7.51685     13.50864      6.32759        -0.048862     -0.759885      0.262464
O       7.55390      1.58680     10.50967         0.285395     -0.112259      0.419215
O       7.52347     13.43193     10.49292         0.208207     -0.077579      0.206905
O       7.40300      5.95940      2.35528         0.368426     -0.659610     -0.838012
O       7.45401      5.23717     14.56325         0.416573      0.272549     -0.158817
O       7.47706      5.86676      6.35536         0.982419      0.464491      0.165422
O       7.57408      5.89459     10.33739        -0.615666      0.206622      0.862663
O       7.38836      8.82888      2.18794         0.748273      1.519495     -0.119154
O       7.45842      9.67912     14.42085         0.757814     -0.057290      0.407225
O       7.42125      9.00927      6.37933         0.909673      0.376851     -0.226242
O       7.47851      8.91554     10.58319        -0.004060      0.634092     -0.300428
O      11.17595      2.19307      2.06388         1.180237     -0.010628      0.529477
O      11.28860      1.42814     14.44725        -0.889086      0.844764      0.599392
O      11.20205     12.70817      2.06926        -0.458559      0.543247      0.526634
O      11.22487     13.57620     14.42437        -0.204409     -0.420859      0.660349
O      11.28156      2.15891      6.33843         0.435124      0.325181     -0.079430
O      11.22718     12.69258      6.33134         0.398144      0.186003      0.138169
O      11.24935      2.10607     10.55810         1.046241      0.204428     -0.156230
O      11.25965     12.77966     10.37885         0.309268     -0.028874      0.298714
O      11.24504      5.35988      2.13065        -0.577599     -0.367089      0.334798
O      11.19498      5.83307     14.64728         0.410440      0.553197     -0.416269
O      11.24187      5.30609      6.22255        -0.692509     -0.056945      0.086498
O      11.35396      5.27372     10.32607        -1.292515      0.002598      0.716151
O      11.13616      9.66879      2.13298         0.636127     -0.365872     -0.072109
O      11.20347      8.83681     14.52547         0.514849      0.932514      0.143538
O      11.18651      9.62937      6.32750        -0.957213      0.010523      0.292600
O      11.22258      9.68884     10.40063        -0.631696     -0.103230      0.088957
O       1.53300      3.75482      2.19224         0.248716     -0.534944      0.043664
O       2.28970      3.69949     14.53697        -0.120943      1.455520      0.382348
O       2.11186     14.94995      2.19653        -0.410036      0.832531      0.337432
O       1.44416      0.03123     14.61922         1.157257     -1.503421     -0.320886
O      13.43198      3.73492      2.09065        -0.333034     -0.016623      0.516481
O      12.81304      3.77180     14.39366        -0.296481     -0.805269      0.478467
O      12.73715      0.00166      2.16437         0.300220      0.089461      0.174456
O      13.50871     15.00109     14.50210        -0.353955      0.380830      0.083167
O       1.52528      3.76026      6.35963         0.715106     -0.323980     -0.192379
O       2.09702      0.02721      6.31584         0.489488     -1.405684      0.440725
O      13.43368      3.73545      6.37629        -0.269829      0.139933      0.054481
O      12.79657     14.97151      6.35138         0.265571     -0.062774     -0.155637
O       1.66469      3.71384     10.42656         0.101458      0.562081     -0.089313
O       2.26787     14.96645     10.39279        -0.458636     -0.093333      0.014877
O      13.40938      3.74617     10.44562         0.183391      0.167292      0.097813
O      12.81558     14.98147     10.39050         0.632262      0.084823      0.098534
O       2.05524      7.52007      2.23797        -0.147091      0.014145     -0.209886
O       1.51919      7.39934     14.48598        -0.614528      1.298036      0.410579
O      12.84045      7.49714      2.21395        -0.026656      0.374150     -0.035437
O      13.44890      7.54114     14.49537        -0.081837     -0.936925     -0.176788
O       2.13860      7.53738      6.39979        -0.510455     -0.488576     -0.299998
O      12.67052      7.43191      6.38030         0.529777      0.735638     -0.227869
O       2.25176      7.48159     10.38901        -0.630890     -0.099228      0.335950
O      12.82203      7.49201     10.29226        -0.164014     -0.692533      0.748738
O       1.58099     11.26126      2.37981         0.331442      0.703883     -0.493955
O       2.16622     11.19898     14.49501        -0.276061      1.197750     -0.365804
O      13.27648     11.25984      2.35792         0.092594     -0.298997     -0.656972
O      12.66848     11.22492     14.49355         0.420662     -0.002627      0.054768
O       1.48121     11.25832      6.32378         0.309676     -0.342992      0.009413
O      13.44897     11.16185      6.26531        -0.377782      0.722833      0.481491
O       1.57196     11.20776     10.35529         0.075212      0.372354      0.785080
O      13.47236     11.22234     10.39584        -0.289921      0.316836      0.182696
O       5.73308      3.73792      2.29390         0.123783      0.052827      0.359419
O       5.22274      3.73936     14.39203         0.099818     -0.322786      0.953356
O       5.23149      0.03465      2.19869         0.403389     -1.235652      0.063957
O       5.83646     14.94830     14.54291         0.942762      0.817902      0.182749
O       5.90920      3.76472      6.45387        -0.160955     -0.477686     -0.413387
O       5.28763     14.91254      6.30571         0.326147      0.875321      0.536908
O       5.89068      3.76248     10.34841         0.351781      0.108668      0.690328
O       5.35225      0.01200     10.35017        -0.468723     -1.253819      0.443366
O       5.18521      7.51827      2.34023         0.271364     -0.370910     -0.506743
O       6.04532      7.48781     14.64666        -0.901858     -0.134036     -0.503556
O       5.30634      7.52742      6.48352         0.650976      0.249301     -0.713541
O       5.27444      7.45884     10.35879         0.292281      0.880839      0.322317
O       5.92801     11.26356      2.17876        -0.130997     -0.064741      0.252724
O       5.23051     11.20030     14.44431         0.138543      0.058412     -0.046340
O       5.95144     11.22510      6.39163         0.016912     -0.485224     -0.070767
O       5.86684     11.27237     10.56626         0.176883     -0.936528      0.074295
O       9.04980      3.71214      2.40807         0.148638      0.996990     -0.592080
O       9.71859      3.74103     14.49836        -0.577994     -0.682557      0.406840
O       9.64923     15.00345      2.27894        -0.200524     -0.238821     -0.324313
O       8.89918     14.96049     14.65254         0.764639      0.375129     -0.282227
O       9.11579      3.77294      6.27806         0.188860     -0.382593      0.268032
O       9.74590     14.92081      6.28226        -0.126816      0.541881      0.181407
O       9.06633      3.68350     10.44071         0.561106      1.056744     -0.056183
O       9.67725     14.99993     10.40268        -0.102599     -0.948991      0.349736
O       9.67484      7.45862      2.30087        -0.439085     -0.218121     -0.458926
O       8.94554      7.48358     14.52539         0.469337     -0.523995     -0.175477
O       9.62274      7.47697      6.32609         0.074844      0.191474     -0.061644
O       9.78952      7.41962     10.56073        -0.515627      0.425535     -0.200048
O       8.93533     11.18550      2.24778         0.168211      0.063590     -0.213994
O       9.79052     11.23036     14.43622        -0.314585     -0.401669      0.637681
O       9.01980     11.17388      6.30399        -0.138037      0.006620      0.321551
O       9.01203     11.17833     10.41778         0.409671      0.480028      0.323655
