  # total energy = -7858.05345155 
CRSYTAL
PRIMVEC
    15.010000000000000    0.0000000000000000    0.0000000000000000
     0.0000000000000000   15.010000000000000    0.0000000000000000
     0.0000000000000000    0.0000000000000000    16.400000000000000
PRESSURE
15.7699 15.9549 7.21058 -0.105552 0.001232 -0.111787
PRIMCOORD
320 1
Pb       3.98970      3.69203      4.42664        -0.449789      0.876493     -1.817406
Pb       3.83837      3.79583      0.17288        -0.759501     -0.174774      0.461810
Pb       3.63512      0.16482      4.15858         1.002315     -0.429419     -0.167878
Pb       3.73582      0.01467     16.35177         0.005598      0.610490      0.422617
Pb      14.97103      3.63868      4.05251         0.342697      0.344150      0.054909
Pb       0.05874      3.71232     16.36437         0.018738      0.391878      0.186613
Pb       0.03675      0.04459      4.19103        -0.466815     -0.513542     -0.824092
Pb      14.89372      0.01312      0.04005         0.227127      0.163306      0.275333
Pb       3.82215      3.65918      8.34952        -0.003261      0.040426     -0.570049
Pb       3.81051     14.80940      8.34377         0.616786      0.861782     -0.482006
Pb       0.15419      3.79636      8.33562        -0.258308     -0.398912      0.273545
Pb       0.01627     14.87145      8.20998         0.020763      1.118885      0.943216
Pb       3.77215      3.75606     12.22230        -0.084551      0.271970     -0.080292
Pb       3.73328      0.00936     12.53470         0.667469     -0.808547     -1.063562
Pb       0.08613      3.69044     12.34803        -0.377908      0.217368     -1.129587
Pb       0.03468      0.03132     12.31557         0.192466     -0.431613     -0.261396
Pb       3.49156      7.54538      4.11374         0.818155     -0.737721     -0.232906
Pb       3.73551      7.37762      0.30804         0.129841      0.359616     -1.358768
Pb      14.86253      7.47867      4.12597         0.229131     -0.070390     -0.170760
Pb      14.93361      7.55822      0.06821        -0.311004     -0.470075      0.133351
Pb       3.69452      7.52841      8.04543         0.032957     -0.095834      0.985032
Pb      14.99876      7.48832      8.26300        -0.361172      0.231862     -0.448256
Pb       3.75788      7.60016     12.30201         0.219881     -0.191487      0.330918
Pb       0.09189      7.30203     12.35797        -0.630189      1.059223     -0.242610
Pb       3.50852     11.30365      4.22124         0.668275      0.049080     -0.828764
Pb       3.66952     11.04622     16.31904         0.948396      0.464646      0.035055
Pb      14.94226     11.26605      4.11417        -0.023426      0.085681     -0.692264
Pb      14.89160     11.37862      0.04819        -0.230440     -0.668296      0.079136
Pb       3.66363     11.09607      8.31127        -0.115474      0.238467     -0.277669
Pb      14.97666     11.14163      8.24363        -0.137863     -0.235576     -0.020106
Pb       3.73055     11.32842     12.38044        -0.512271      0.111313     -0.223686
Pb      15.00908     11.29307     12.33766         0.288456      0.265928      0.296630
Pb       7.56789      3.66733      4.21969        -0.593616     -0.107481     -0.800921
Pb       7.59300      3.84800     16.38307        -0.694182     -0.399783      0.330713
Pb       7.48748     14.92613      4.28481        -0.433698      0.124861     -0.681242
Pb       7.33309      0.02708      0.01473         1.518787      0.282397      0.316131
Pb       7.55951      3.65567      8.25331        -0.250427      0.188485     -0.244900
Pb       7.54865     14.95136      8.32477        -0.413786      0.321147     -0.456683
Pb       7.49803      3.72272     12.24476         0.534762      0.351669      0.208697
Pb       7.62064     14.81330     12.47612        -0.941711      1.190850      0.180973
Pb       7.24602      7.55234      4.04623         1.043244      0.060803      0.592789
Pb       7.52301      7.50911      0.11139        -0.854172      0.095824     -0.481240
Pb       7.47693      7.50959      8.41569        -0.065992     -0.106469     -0.914405
Pb       7.60729      7.40295     12.56330        -1.176298     -0.422959     -0.804291
Pb       7.42106     11.38644      4.11508         0.249855     -0.600955     -0.506839
Pb       7.52550     11.28889      0.12784         0.562193     -0.505199     -0.543794
Pb       7.38844     11.17995      8.32769         0.369056     -0.176687     -0.918472
Pb       7.53710     11.14419     12.41053        -0.057256     -0.174161      0.495807
Pb      11.12983      3.74836      4.17251         0.599983     -0.442900     -0.734485
Pb      11.30133      3.81531     16.38291        -0.455321     -0.492910      0.677086
Pb      11.38565      0.03674      4.26516        -0.387863     -0.141881     -0.419457
Pb      11.02385     14.95842      0.17544         0.460261      0.054333     -0.797103
Pb      11.42796      3.80878      8.13455        -0.674542     -0.466851      0.470622
Pb      11.29716     14.86380      8.29783        -0.023087      0.350077     -0.566049
Pb      11.36125      3.72002     12.22244        -0.191011      0.531304      0.112439
Pb      11.29836      0.16243     12.30755         0.068351     -0.647622     -0.069147
Pb      11.17041      7.45315      4.22671         0.024509     -0.076329     -0.696094
Pb      11.08802      7.48817      0.17066         0.852111      0.068402     -0.456944
Pb      11.06172      7.46097      8.20621         0.788334      0.077490     -0.367534
Pb      11.35961      7.32665     12.30528        -0.277411      0.613354      0.172298
Pb      11.27660     11.31013      4.19408        -0.635398     -0.292877     -0.250155
Pb      11.22778     11.11762      0.09785        -0.407173      0.745690     -0.694844
Pb      11.01524     11.12444      8.33903         0.593110      0.087273     -0.351498
Pb      11.18781     11.30654     12.26635         0.883536      0.057559      0.027160
Ti       1.81203      1.83958      1.99873         1.276581      0.702047      0.149785
Ti       1.86955      1.86240     14.26653        -0.092965      0.610518      0.924633
Ti       1.85331     13.15624      1.94869        -0.342363      0.529387      1.725318
Ti       1.90071     13.11869     14.49018        -0.570193     -0.154757     -1.787112
Ti      13.06347      1.94365      2.03504        -0.336607     -0.546933     -0.057648
Ti      13.13011      1.86657     14.35097        -0.606337      1.199210     -0.156249
Ti      13.00602     13.14621      2.09062         0.709543     -0.157531     -0.267691
Ti      13.08290     13.20917     14.41884        -0.635170     -1.501586     -1.108114
Ti       1.87013      1.90831      6.18722         0.523918     -0.391937      0.413699
Ti       1.79738     13.17001      6.14836         1.408748     -0.316033      0.880461
Ti      13.20657      1.92248      6.23778        -1.443129     -1.819507     -0.484059
Ti      13.10974     13.01121      6.22439        -0.827170      1.224939     -0.383154
Ti       2.06158      1.80095     10.21000        -1.754636      1.710641     -0.456996
Ti       1.95429     13.08805     10.19192        -0.160760     -0.218711      1.736143
Ti      13.21266      1.87336     10.19687         0.918488      0.956569     -0.341719
Ti      13.23706     13.21401     10.25633        -0.683790     -1.598780      0.394509
Ti       1.78912      5.61198      2.08849         0.295369     -0.389527     -0.734249
Ti       1.91759      5.56572     14.30358        -0.441835      0.173036      0.947509
Ti      13.05506      5.63215      1.96832         0.175271      0.602633      0.366407
Ti      13.16863      5.63283     14.29893        -0.262446     -0.162755      0.290566
Ti       1.85000      5.59371      6.16356        -0.168974      0.061406      0.246898
Ti      13.17891      5.54803      6.11582        -0.536837      1.715486      0.183520
Ti       1.91062      5.68117     10.17555        -0.642301     -2.295589      0.055138
Ti      13.18153      5.67551     10.16227        -0.546897     -0.366140     -0.106184
Ti       1.89424      9.46860      2.00236        -0.453695     -0.650254      0.133738
Ti       1.75209      9.29464     14.50279         0.646377      0.536849     -1.757519
Ti      13.14013      9.36972      1.97355        -0.415880     -0.045213      0.864593
Ti      13.09696      9.44265     14.20011        -0.162549     -0.241679      0.879187
Ti       1.80362      9.35086      6.17200        -0.701571      0.190805     -0.080204
Ti      12.97829      9.30991      6.06395         0.528363      0.043885      1.109072
Ti       1.81833      9.31122     10.37667         0.286515      1.205829      0.061471
Ti      13.10312      9.43814     10.26701        -0.253882     -1.442937     -0.424818
Ti       5.66608      1.90125      2.11773        -0.919280      0.696719      0.666112
Ti       5.61416      1.90760     14.40989        -0.008921     -0.781722     -0.761072
Ti       5.53623     13.16394      1.86032         0.918681     -0.091540      1.273698
Ti       5.68910     13.05650     14.38796        -1.003345      1.127034     -1.127751
Ti       5.68321      1.88422      6.28305        -0.084818     -1.066814      0.196307
Ti       5.50653     13.04988      6.16912         1.085105      1.149017      0.339470
Ti       5.79432      1.88930     10.40316        -2.089649     -1.946614     -0.661132
Ti       5.74422     13.06243     10.22498        -2.188253      2.064273      0.932813
Ti       5.52762      5.69027      2.24580        -0.082719     -2.159731      0.503854
Ti       5.53584      5.58335     14.29169         0.617420      0.306228     -0.406972
Ti       5.63544      5.78646      6.26243         0.575821     -1.811737     -1.047434
Ti       5.61247      5.68470     10.17264         0.641754     -0.488302      0.414125
Ti       5.64018      9.42155      1.98506        -0.558071     -0.663034     -0.299912
Ti       5.57716      9.28842     14.30193         0.548071     -0.289771      1.060690
Ti       5.52677      9.43435      6.02616         1.023931      0.144170     -0.186623
Ti       5.58544      9.41523     10.29860        -0.719303     -0.974965     -0.013899
Ti       9.34440      1.84263      1.97093         0.759251      0.347321      0.662955
Ti       9.37306      1.90892     14.35828        -0.209433     -1.354613      1.005935
Ti       9.35289     13.11086      2.14038        -0.773740     -0.185946     -0.785330
Ti       9.43733     13.08378     14.29265         0.011868      0.050408      1.503953
Ti       9.47691      1.73484      6.17357        -0.368997      1.819255     -0.403809
Ti       9.25042     13.05778      6.24800         0.921324     -0.652541     -0.721522
Ti       9.50623      1.89394     10.19131        -0.543383      0.012736     -0.383245
Ti       9.36200     13.11997     10.35384         1.549938      0.212402     -0.860018
Ti       9.28379      5.59410      2.07755         0.293296     -0.441696      0.359894
Ti       9.40805      5.58619     14.43928         0.295059      1.367472     -1.638356
Ti       9.31209      5.52168      6.11030        -0.458986      0.927055      0.083855
Ti       9.41061      5.63045     10.33473        -1.044554     -1.006299     -0.140963
Ti       9.37051      9.30838      2.05540        -0.101162      0.896787      0.620031
Ti       9.39834      9.28616     14.29400        -0.396603      0.383370      0.935013
Ti       9.21880      9.32675      6.10553         0.002436      0.132678     -0.640347
Ti       9.31740      9.28165     10.34112         0.606886      0.490107     -0.168930
O       1.75692      1.75095      0.13284        -0.175072      0.095859      0.435370
O       1.91573      1.93442     12.42576         0.000011     -0.023396     -0.150054
O       1.87893     13.23335      0.14667         0.008811     -0.224489     -0.291465
O       1.87788     13.08316     12.52444        -0.048542      0.616421      0.820653
O      13.19676      1.83526      0.15826         0.022283      0.475964     -0.169784
O      13.14422      1.93782     12.42594         0.046030     -0.384484      0.705319
O      12.90989     12.91892      0.16157         0.369505      0.984614      0.427089
O      13.14647     13.06957     12.53572         0.413123      0.838996     -0.163799
O       1.96994      1.89988      4.28495        -1.025228     -0.221680      0.505701
O       1.79356     13.25902      4.35034         0.285046     -0.823156     -0.274085
O      12.92178      1.84604      4.25140         1.088783      0.131706      0.603978
O      13.14106     13.16359      4.33314         0.064985     -0.609695      0.282575
O       1.97849      1.87936      8.32821        -0.217445     -0.176498     -0.023787
O       1.81033     13.16122      8.38721        -0.002004     -0.448061     -0.344178
O      13.02860      1.80460      8.31512         0.291087      0.167903      0.023968
O      13.33475     13.03804      8.34854        -0.869459      0.382112      0.392092
O       1.96864      5.58327      0.17123        -0.496947      0.319098      0.611475
O       1.88571      5.64421     12.38692         0.107386     -0.286090      0.647217
O      13.13291      5.70718      0.12236         0.004688     -0.460075     -0.295825
O      13.23457      5.53202     12.39570        -0.403457     -0.062630      0.350600
O       1.68948      5.72279      4.37319        -0.262736     -0.160177     -1.327950
O      13.10558      5.58368      4.28039         0.307562      0.187859     -0.465661
O       1.74666      5.64854      8.31025         0.362445      0.029686      0.094778
O      13.17295      5.62890      8.25039        -0.387798      0.130228      0.988095
O       1.93446      9.45613      0.09927        -0.945319      0.024035      0.539340
O       1.82245      9.31377     12.53483        -0.100840     -0.212618      0.208895
O      13.17375      9.38095      0.15658         0.218163      0.179259     -0.496204
O      12.99601      9.22797     12.42448         0.636026      1.094774     -0.186376
O       1.96670      9.34363      4.29754        -0.542235      0.324030     -0.228147
O      13.00568      9.25171      4.22023         0.191453      0.862926      0.474944
O       1.87876      9.34292      8.42476         0.251242      0.208146      0.296979
O      12.98456      9.35149      8.37879         0.449482      0.275208      0.134418
O       5.51136      2.01290      0.30398         0.526235     -0.536069     -1.306914
O       5.67539      1.81281     12.39233        -0.387783      0.615401      1.785446
O       5.73375     13.14126      0.00893        -0.460014     -0.181228      1.168436
O       5.49074     13.29558     12.47345         0.558121     -0.617177      0.267990
O       5.62706      1.76606      4.33441         0.212491      0.024821      0.749058
O       5.67896     13.05499      4.35728        -0.248405      0.299708     -0.530242
O       5.64289      1.86153      8.32264        -0.144996      0.408966      0.264108
O       5.66896     13.13613      8.35033         0.242776     -0.501474      1.072475
O       5.43730      5.62820      0.39051         0.002734     -0.621184     -0.806941
O       5.48829      5.66803     12.47186        -0.387797     -0.893626     -0.007074
O       5.70088      5.74856      4.35438        -0.324157      0.126064      0.236667
O       5.64425      5.65595      8.27475         0.266506     -0.145500      1.116831
O       5.72636      9.15807      0.09886        -0.736907      1.168732      0.341563
O       5.65216      9.25402     12.45300        -0.054088      0.552730      0.161492
O       5.50452      9.32435      4.15751         0.053547      0.459610      0.569680
O       5.46735      9.51228      8.36813         0.457657     -0.283065      1.152893
O       9.37047      1.97737      0.14915        -0.083663     -0.510703     -0.433745
O       9.26638      1.86086     12.56259         0.383942      0.153104     -0.049356
O       9.54677     13.10291      0.19185        -0.568726     -0.307260     -0.335034
O       9.29370     12.99833     12.40521         0.417944      0.455373      0.016996
O       9.49554      1.89599      4.21706        -0.458849     -0.349899      1.251370
O       9.26524     12.94285      4.27304        -0.037124      0.697088      0.707521
O       9.59697      1.92280      8.33169        -0.690832     -0.546137      0.828343
O       9.38314     13.12131      8.41161        -0.109752      0.276621      0.253388
O       9.27074      5.77119      0.14172         0.560765     -0.657464     -0.109502
O       9.51596      5.73593     12.48584        -0.817609     -0.684170      0.267540
O       9.42934      5.51245      4.21333        -0.671014      0.169966      0.839294
O       9.20953      5.71531      8.43225         0.352437     -0.552492      0.040866
O       9.26613      9.15895      0.16206         0.212710      0.400544     -0.323124
O       9.22030      9.15888     12.36702         0.888297      1.086015      0.577687
O       9.23422      9.37913      4.21658         0.810381      0.243482      0.479430
O       9.25403      9.24877      8.29724         0.584169      0.517971      0.593504
O       3.74379      2.12597      2.21159        -1.508474     -0.559460      0.280773
O       3.66268      1.47586     14.53632         1.712735      0.464603      0.092702
O       3.75537     12.83414      2.19473         0.263769      0.773058     -0.194981
O       3.73787     13.53858     14.56702        -0.030825     -0.575531      0.034817
O      14.91017      1.50823      2.26458         0.455020      0.511069      0.145017
O      14.99677      2.32402     14.37183        -0.402605     -0.754651      0.502523
O      14.96341     13.31208      2.25943         0.103387      0.125021     -0.441309
O      14.92996     12.85256     14.70086         0.585404      0.594455     -0.333478
O       3.60568      2.40225      6.29037         2.166871     -1.398394      0.724927
O       3.76604     12.66522      6.44696        -1.213683      0.162982     -0.294732
O      14.96454      1.40451      6.37455         0.784610      0.665518     -0.456618
O       0.03566     13.56405      6.39009        -0.897517     -0.929762     -0.835567
O       3.81401      2.31580     10.38721         0.438704     -0.561971      0.126645
O       3.77187     12.70259     10.35227         0.490846      0.810365     -0.077708
O       0.01216      1.54989     10.37818         0.550933      0.216205      0.282893
O       0.06934     13.44782     10.46696        -0.390526     -0.156096      0.227955
O       3.56231      5.39621      2.59813         1.043201      0.429908     -0.879525
O       3.69834      5.96942     14.48708        -0.313628      0.207890      0.141503
O      15.00642      6.11999      2.07673        -0.902633     -0.937770      0.788811
O      15.00680      5.21800     14.52009         0.177838      0.042958     -0.297340
O       3.70313      5.33547      6.34686         0.381478      0.494292      0.124265
O      14.94549      5.98115      6.34262         0.006329      0.056980     -0.084268
O       3.74347      5.33168     10.21254         0.504197      0.011080      0.892059
O      15.00504      5.92081     10.29251         0.338658     -0.069532      0.321809
O       3.73841      9.70587      2.06261         0.177274     -0.143129      0.404767
O       3.70158      8.98507     14.57660         0.086251      0.721486     -0.269135
O       0.03702      9.24395      2.27184        -0.644032      0.040657     -0.001033
O      14.92402      9.91196     14.50808         0.039054     -0.801399      0.322717
O       3.75048      9.83286      6.29174        -0.899378     -0.859746      0.177919
O      14.99519      8.87861      6.32176        -0.950686      1.201764     -0.383276
O       3.73953      9.68814     10.62301         0.169081     -0.478941     -0.588428
O      15.00835      9.07743     10.42982        -0.399139      0.139437      0.087550
O       7.55471      1.90954      2.22306        -1.506526     -1.007315      0.420275
O       7.37109      2.08285     14.74524         1.340720      0.681585     -0.449613
O       7.49443     13.38723      2.23356        -1.251062     -0.509234      0.065826
O       7.50113     12.91203     14.34750         0.350971     -0.892770      0.226324
O       7.52310      1.50490      6.42935        -0.039591      0.424326     -0.420936
O       7.47693     13.48072      6.46961        -0.463152      0.455323     -0.480375
O       7.55829      1.69005     10.46422         1.259730     -0.305806     -0.475392
O       7.53850     13.53274     10.46742        -0.363156     -0.667794     -0.356242
O       7.41848      5.88578      2.20759         0.262489     -0.031967      0.143957
O       7.42711      5.21429     14.34714        -0.023087      0.538959      0.568619
O       7.50963      6.18614      6.38540         0.415624     -1.205415     -0.426913
O       7.40885      5.89961     10.69183         1.599140     -0.699037     -1.052879
O       7.48906      9.13087      2.16517        -0.401987     -0.668062      0.040088
O       7.51036      9.66755     14.54388        -0.316942     -0.270319     -0.593228
O       7.40982      8.98569      6.26699         0.069645      0.049579      0.287127
O       7.45353      9.23072     10.35642         0.591312     -0.221788      0.134746
O      11.22126      2.17430      2.07960         0.691698     -0.030312      0.238405
O      11.17372      1.55852     14.52142         0.489524      0.200826     -0.219898
O      11.15901     12.88888      2.42332         1.226287     -0.148871     -0.192031
O      11.19843     13.58370     14.33449         0.407557     -0.275678      0.257838
O      11.24956      2.21199      6.34493         0.464795     -0.112870     -0.276860
O      11.18019     12.64343      6.33748         1.042460      0.655012      0.097897
O      11.33860      2.13300     10.49203        -0.176156     -0.197101      0.088547
O      11.34145     12.93483     10.55398        -0.728219      0.230606     -0.631979
O      11.22954      5.26167      2.10839         0.062418      0.824933      0.137714
O      11.28998      6.03833     14.40135        -0.842698     -0.874539      0.996852
O      11.18978      5.19908      6.28075         0.061511      0.630757      0.181560
O      11.23765      5.36671     10.40298         0.777609      0.051938     -0.078761
O      11.23897      9.57116      1.95512        -0.151831      0.128172      1.075487
O      11.25492      9.00564     14.55616        -0.484020      0.029214     -0.103914
O      11.13658      9.86912      6.29059         0.578232     -0.879942     -0.034861
O      11.23119      9.65914     10.43107        -0.964236     -0.215682     -0.046062
O       1.42940      3.72205      2.15896         0.079601      0.109481      0.209469
O       2.22836      3.76699     14.60157        -0.286742     -0.263186     -0.473348
O       2.00086      0.00098      2.40791         0.246811     -0.468537     -0.777820
O       1.60928      0.04878     14.43671        -1.084117     -0.747456      0.316257
O      13.42760      3.81687      2.27954         0.085436     -1.031170     -0.529699
O      12.59705      3.70975     14.53764         1.490645      0.219874     -0.540506
O      12.72611     14.94462      2.19972         0.457164      1.341512     -0.176896
O      13.43085      0.05407     14.55406         0.033849     -0.142185     -0.161013
O       1.44793      3.76009      6.29393        -0.149826     -0.526622     -0.014403
O       2.47036     14.92681      6.35281        -1.668434      0.979960     -0.365710
O      13.44464      3.73976      6.33939         0.069660     -0.723694      0.089440
O      12.72877     14.95056      6.26551         0.242264      0.088934      0.659608
O       1.63766      3.71473     10.31278        -0.197460      0.878354      0.362799
O       2.22501      0.04715     10.42745         0.021319     -2.193780      0.311993
O      13.52215      3.77531     10.36200        -0.868877     -0.464026     -0.077706
O      12.89006      0.00595     10.36833        -0.010894     -0.166688      0.246687
O       2.11919      7.58430      2.08816        -0.036178     -0.078788      0.650769
O       1.25776      7.54051     14.57186         1.362785     -1.100513     -0.525051
O      12.77985      7.51042      2.17713         0.525274      0.009990      0.140686
O      13.55586      7.42386     14.30554        -0.402736      1.366966      0.668490
O       2.14324      7.51868      6.34928         0.409226     -0.260970      0.051673
O      12.67923      7.50281      6.22265         0.128085     -0.218276      0.385522
O       2.14292      7.46123     10.36835         0.371971      1.091004      0.360066
O      12.77204      7.47363     10.46605         0.797400      0.088937     -0.800853
O       1.77773     11.34599      2.40862        -0.840116     -0.575673     -0.253594
O       2.13140     11.27823     14.53157         0.086207     -0.038362      0.221588
O      13.30385     11.29420      2.28637        -0.237650     -1.310463      0.246351
O      12.62840     11.31446     14.44925         0.599970     -1.030734     -0.051884
O       1.46170     11.17011      6.32643         0.252909      1.562353     -0.035203
O      13.58619     11.21615      6.31337        -0.480479     -0.399612     -0.327548
O       1.62106     11.26140     10.65838         0.016513     -0.294229     -1.321429
O      13.39871     11.23647     10.47663         0.100129      0.661587     -0.041355
O       5.71513      3.75536      2.65353         0.239849      0.583868     -1.032562
O       5.15407      3.68183     14.69892         0.670387      0.865648     -1.139534
O       5.47159      0.01637      2.16103        -0.107827     -0.893639      0.063252
O       6.03139     14.99443     14.60338        -1.794167      0.841528     -0.528858
O       5.97406      3.84212      6.23809        -0.149212     -1.088672      0.381663
O       5.28195     15.00727      6.32931        -0.003092      0.054019      0.115105
O       6.02325      3.75028     10.44171        -1.079403      0.891350     -0.324584
O       5.24993      0.01800     10.39467         0.844471     -0.545331     -0.196198
O       5.21912      7.50522      2.20768         0.295789      0.478236      0.729508
O       5.88617      7.43288     14.40213         0.167984      0.057231      0.605680
O       5.25803      7.56458      6.31491        -0.453508      0.943196      0.132481
O       5.39004      7.48516     10.41504        -0.399456      1.157773     -0.344041
O       5.92932     11.20043      2.03248        -0.225758      1.920526     -0.007242
O       5.30372     11.27959     14.44587         0.023727     -1.499352      0.141934
O       6.03968     11.22040      6.33136        -0.329032      0.148886     -0.038252
O       5.98671     11.27368     10.66058        -0.595529      0.010015     -0.749256
O       9.13518      3.76808      2.18079         0.026249      0.666694      0.081653
O       9.49355      3.79242     14.71875         0.535450     -1.062329     -0.498827
O       9.52308     14.97223      2.07332         0.297395      1.194804      0.605882
O       9.01738     14.91494     14.56502         0.071567      1.409084     -0.008018
O       8.99593      3.65748      6.42956         0.306330      1.339178     -0.673360
O       9.68332     14.97092      6.30780         0.186471     -0.853696      0.210430
O       9.31703      3.71760     10.60441        -1.072683      0.622314     -0.281269
O       9.67473      0.08498     10.51940        -0.071958     -1.265861     -0.209770
O       9.62518      7.45087      2.28794        -0.073932      0.132491     -0.086237
O       8.94242      7.42189     14.49576         0.463502      0.963113      0.410934
O       9.76964      7.47475      6.14607        -0.436484      0.149012      0.675828
O       9.64634      7.46899     10.31053        -0.180259      0.928730      0.408212
O       9.06190     11.23022      2.06608         0.228380     -0.761630      0.186186
O       9.65478     11.19064     14.52989        -0.127405     -0.144304     -0.352191
O       8.74813     11.29687      6.31477         1.087548     -1.530898      0.412348
O       9.19943     11.30013     10.37719        -0.352710     -1.215794      0.248578
