  # total energy = -7867.32240900 
CRSYTAL
PRIMVEC
    15.010000000000000    0.0000000000000000    0.0000000000000000
     0.0000000000000000   15.010000000000000    0.0000000000000000
     0.0000000000000000    0.0000000000000000    16.400000000000000
PRESSURE
18.19 18.454 8.42256 -0.167305 -0.203482 -0.012306
PRIMCOORD
320 1
Pb       3.89340      3.81596      4.25726        -0.995476     -0.372236     -0.885653
Pb       3.71200      3.73035      0.04098         0.314868      0.016927     -0.346425
Pb       3.67424      0.04345      4.11548         0.046076     -0.467319      0.056828
Pb       3.71626     14.91317     16.39655         0.527850      0.291491      0.115791
Pb      14.95315      3.69981      4.08836         0.349389      0.323525     -0.450392
Pb       0.00611      3.62991     16.33866        -0.495088      0.556438      0.861426
Pb      14.98321      0.00581      4.14906         0.357148     -0.499283     -0.444578
Pb      14.96334     14.90479      0.10412        -0.127654      0.096567      0.129952
Pb       3.65686      3.78505      8.23085        -0.202579     -0.441765      0.204683
Pb       3.63243     14.94567      8.09973         0.639775      0.565724      0.738364
Pb      14.91493      3.81029      8.30708         0.138755     -0.512770     -0.122281
Pb      14.90233     14.96497      8.15121        -0.093582      0.478376      0.652526
Pb       3.58327      3.73918     12.30332         0.113889      0.112596      0.886901
Pb       3.69175     14.94035     12.38222         0.262132      0.583663     -0.099483
Pb      14.97162      3.71151     12.40767         0.209278      0.142464     -0.112597
Pb      15.00649     14.95244     12.38490        -0.328892      0.211123     -0.422960
Pb       3.81979      7.39582      4.12564        -0.140635      0.951446     -0.525384
Pb       3.73675      7.41292      0.08298         0.066370      0.364035     -0.346872
Pb      15.00332      7.47665      4.15143         0.054111      0.254080     -0.426125
Pb      14.96419      7.51393     16.38935         0.197678     -0.360818      0.171004
Pb       3.76612      7.49249      8.04881        -0.141907      0.262687      1.045468
Pb      14.97706      7.51015      8.30875        -0.201260     -0.259795      0.518166
Pb       3.70610      7.60384     12.27486         0.190141     -0.297436      0.491155
Pb      14.94789      7.42215     12.36761         0.035076      0.269331      0.139718
Pb       3.76072     11.24695      4.32506        -0.031058     -0.433208     -0.748271
Pb       3.76915     11.16077     16.29709        -0.063010      0.190519      0.746896
Pb       0.10296     11.22230      4.10135        -0.075501      0.065665     -0.248254
Pb      14.98514     11.29833      0.02902        -0.011310     -0.220425      0.446349
Pb       3.84993     11.26252      8.13842        -0.493503      0.033724      0.784790
Pb       0.00737     11.26676      8.21922         0.058906     -0.107803      0.805918
Pb       3.76908     11.33707     12.26719        -0.170918     -0.192416      0.221490
Pb       0.02721     11.28477     12.34905        -0.154872     -0.287912     -0.219564
Pb       7.48612      3.65958      4.06631         0.094872      0.368063     -0.586398
Pb       7.49646      3.70900     16.33483        -0.706898      0.282167      0.342636
Pb       7.47079     14.91211      4.12367         0.239995      0.315520     -0.420973
Pb       7.37313     15.00198      0.00740        -0.178441     -0.221264      0.103699
Pb       7.40771      3.68064      8.13179         0.519873      0.047633      1.348165
Pb       7.53500      0.15494      8.11839        -0.171604     -0.769691      0.968641
Pb       7.39745      3.77405     12.29999        -0.043498     -0.259436     -0.336017
Pb       7.48590     14.88934     12.39509        -0.100221      0.090509     -0.824638
Pb       7.48971      7.53762      4.05696         0.176160     -0.169371      0.027785
Pb       7.48774      7.55412     16.35356         0.328225     -0.291252      0.051746
Pb       7.44378      7.48930      8.29148         0.275905      0.167940      0.260364
Pb       7.47020      7.52080     12.35589        -0.334568      0.225122     -0.172802
Pb       7.69144     11.27121      4.16137        -0.382226     -0.552773      0.024676
Pb       7.54167     11.22724     16.37485        -0.176622     -0.118557     -0.140793
Pb       7.56301     11.32574      8.08620        -0.133426     -0.393552      1.656568
Pb       7.47401     11.20544     12.24252         0.352861      0.549984      0.445219
Pb      11.10815      3.77661      4.09063         0.232098      0.157784     -0.254630
Pb      11.24555      3.64601     16.35885         0.090366      0.566865     -0.050102
Pb      11.27295      0.00011      4.11653        -0.284301     -0.763904     -0.115318
Pb      11.15451     14.91014      0.09767         0.423555      0.077608      0.128363
Pb      11.14542      3.73928      8.13492         0.560493     -0.151660      0.922294
Pb      11.15860      0.06417      8.18161         0.630408     -0.443337      0.904593
Pb      11.22888      3.70173     12.38351         0.136620     -0.072434      0.160490
Pb      11.23510      0.10922     12.38214        -0.219425     -0.750153     -0.495163
Pb      11.39411      7.47876      4.16795        -0.818492      0.230740     -0.485240
Pb      11.27493      7.51998      0.02796        -0.259629     -0.386900     -0.148694
Pb      11.22619      7.47635      8.20249        -0.374663     -0.142042      0.986115
Pb      11.34482      7.47977     12.29869        -0.282889      0.003367      0.571255
Pb      11.45912     11.13483      4.12514        -0.748945      0.318968     -0.587868
Pb      11.39032     11.11477     16.37987        -0.563477      0.537324      0.951369
Pb      11.27355     11.21601      8.24103        -0.112622      0.635283      0.629800
Pb      11.27395     11.28131     12.26377        -0.723283      0.015889      0.389100
Ti       1.89547      1.89299      2.09468        -0.838055      0.142988     -0.311657
Ti       1.85407      1.81343     14.52453         0.157721      0.341030     -0.908046
Ti       1.95031     13.09575      2.10677        -0.923173     -0.337828      0.108691
Ti       1.79641     13.14173     14.48076         0.799413     -1.001154     -0.649640
Ti      13.04218      1.88096      2.14611         0.683048      0.211337     -1.353375
Ti      13.07844      1.79165     14.54267         0.042284      0.671237      0.631242
Ti      13.12557     13.15944      2.17743        -0.302008     -1.202218     -0.178143
Ti      13.00132     13.11976     14.43314         1.719026     -0.590764     -0.366935
Ti       1.80178      1.88332      6.28646         0.397899      0.082043     -0.041433
Ti       1.90049     13.05453      6.33673        -0.197660      0.351404     -0.846977
Ti      13.15457      1.89144      6.13888        -0.500576     -0.493822      0.304862
Ti      13.20198     13.08029      6.24784        -1.503322      0.474179     -1.157749
Ti       1.84444      1.90843     10.29540        -0.936490     -1.092558      0.001754
Ti       1.84344     13.16476     10.35817        -0.333238     -0.870706     -0.533003
Ti      13.12146      1.87930     10.37705        -0.390243     -1.725327     -1.813456
Ti      13.03843     13.13190     10.31609         0.403511      0.928354      0.245511
Ti       1.79021      5.61034      2.14173        -0.370560      0.022526     -1.191883
Ti       1.86035      5.64748     14.50259         0.134940     -0.747843     -0.724766
Ti      13.06832      5.65227      2.08514         1.381207     -0.939786     -0.991144
Ti      13.13208      5.60173     14.43145        -0.542105      0.205880     -0.205174
Ti       1.79729      5.62256      6.20589        -0.287438     -1.131731      0.285134
Ti      13.08880      5.60346      6.26062         0.579323     -0.081603     -0.211603
Ti       1.82554      5.68811     10.35689        -1.116781     -0.821333      0.348392
Ti      13.04975      5.57094     10.33800         0.196696      0.542101      0.177780
Ti       1.93483      9.35643      2.04271         0.376754      0.158779      1.278628
Ti       1.89061      9.37627     14.41230        -0.576711      0.227662      0.189767
Ti      13.21722      9.35928      2.16720        -1.096517      0.556827     -0.460561
Ti      13.15922      9.35258     14.42285         0.331566      0.091309     -0.789248
Ti       1.79442      9.26875      6.27108         1.190174      1.783142     -0.907247
Ti      13.13112      9.31197      6.34351         0.398589      0.876024     -1.679141
Ti       1.84525      9.37816     10.25791        -0.574609      1.543642      0.358536
Ti      13.06398      9.38419     10.37235         0.903475      0.027635      0.096238
Ti       5.55698      1.81689      2.13227         0.410287      0.018602     -1.140851
Ti       5.54079      1.93392     14.32870        -0.369495     -1.010006      0.558584
Ti       5.64003     12.99206      2.16690        -0.832670      1.329695     -0.728666
Ti       5.58214     13.10564     14.47010         0.541242      0.256504     -0.318093
Ti       5.62434      1.90419      6.18509        -0.478837     -2.060769      0.170208
Ti       5.71879     13.14794      6.16577        -0.726443     -0.246373      0.653434
Ti       5.51951      1.87747     10.34541         0.767630     -0.642110     -0.376884
Ti       5.58878     13.17189     10.26824         0.775865      0.857594     -0.240980
Ti       5.55333      5.59046      2.04245         0.811677      0.375272      0.124265
Ti       5.62070      5.70004     14.37907        -1.086702     -1.222011      0.207569
Ti       5.63087      5.57524      6.29633         0.336279      0.035328     -1.265271
Ti       5.51118      5.61738     10.35437         1.283380      0.311188      0.271782
Ti       5.66168      9.40656      2.11743        -1.020979     -0.667022     -0.200594
Ti       5.64742      9.38552     14.37429        -0.619169      0.054155     -0.211169
Ti       5.67089      9.32917      6.24842        -0.294813      0.924961     -0.488772
Ti       5.52739      9.46048     10.27132         1.760908     -0.628957      0.119418
Ti       9.32030      1.77644      2.01953        -0.711462      0.534922      0.929969
Ti       9.26530      1.84387     14.40523         1.092344      0.095572     -0.730285
Ti       9.30877     13.06525      2.04885         1.429567     -0.329417      0.294207
Ti       9.36158     13.11801     14.46997        -0.779195     -0.615687     -0.919796
Ti       9.42499      1.82063      6.16276        -0.246822     -0.041253      0.065795
Ti       9.50229     13.05236      6.20585         0.047561      1.064005     -0.465560
Ti       9.38107      1.95346     10.38839        -0.726388     -1.020159      0.200006
Ti       9.36321     13.15292     10.32540        -0.302041     -0.215949      0.286018
Ti       9.30016      5.64802      2.05266         0.778764     -0.401998      0.394702
Ti       9.35842      5.57830     14.27945         0.339744      0.817894      1.026528
Ti       9.32775      5.61665      6.26683         0.740279      1.354880     -0.483769
Ti       9.30999      5.68866     10.34061        -0.349152     -1.293501     -0.425518
Ti       9.37200      9.37258      2.11051         1.174267      0.430604      0.016929
Ti       9.45265      9.34896     14.40794        -1.688019      0.056381     -0.825651
Ti       9.43521      9.37109      6.26886        -1.412852     -0.988422     -0.715725
Ti       9.32084      9.34584     10.36302        -0.406372      1.359592     -0.005316
O       2.01147      1.87847      0.25161        -0.313128     -0.240551      1.354456
O       1.96046      1.78614     12.68203        -0.892790      0.112401     -0.278208
O       1.85123     13.13257      0.28848         0.118510      0.023754      0.782393
O       1.86064     13.12179     12.61480        -0.180037     -0.029309      0.290042
O      12.91077      1.79511      0.21653         0.279338      0.202589      1.621324
O      13.14295      1.76867     12.77593        -0.052931      0.529275     -1.784722
O      13.16266     13.14365      0.36364        -0.196951      0.041776     -1.161273
O      13.06143     13.01763     12.61143         0.089907      0.349306      0.939969
O       1.71694      1.92281      4.50448         0.019186     -0.297746     -0.773769
O       1.81895     13.06228      4.50034        -0.123567      0.178956     -0.293712
O      13.12186      1.98086      4.26545         0.042508     -0.526248      0.947054
O      13.21596     13.05081      4.35977        -0.347719      0.138121      0.599851
O       1.79213      1.97784      8.49770         0.104137     -0.446679     -0.204817
O       1.89958     13.03784      8.46792        -0.082554      0.605591      1.170424
O      13.06482      1.75000      8.50364         0.115693      0.295649      0.499625
O      13.07424     13.22173      8.49178         0.165791     -0.362452     -0.183996
O       1.66427      5.51135      0.24062         0.606137      0.511287      1.136264
O       1.76659      5.61079     12.62024         0.317255     -0.000404      0.254863
O      13.18045      5.56779      0.23610        -0.503321      0.733461      0.602296
O      12.99364      5.67819     12.58705         0.530418     -0.729966     -0.737231
O       1.96052      5.69921      4.42458        -0.291717     -0.365878     -0.392629
O      13.08985      5.61770      4.45214        -0.190605     -0.020021     -0.045505
O       1.75970      5.59047      8.54974         0.062759      0.296801      0.059329
O      13.12498      5.64701      8.52295         0.250475      0.049613     -0.272328
O       1.96359      9.40147      0.27695        -0.234773     -0.478721     -0.395821
O       1.79584      9.38862     12.60694         0.295463     -0.006541      0.065632
O      13.13086      9.29049      0.27917        -0.405010     -0.168414      0.653235
O      13.10076      9.40395     12.58987         0.207928      0.105998     -0.064619
O       1.73132      9.30753      4.46053         0.469054     -0.024435      0.304123
O      13.21854      9.25312      4.34964        -0.467899      0.552742      1.643982
O       1.86285      9.43565      8.43355        -0.074825     -0.687382      0.529507
O      13.07054      9.44023      8.50566         0.147176     -0.516438     -0.259518
O       5.42909      1.87992      0.26325         0.439700     -0.484038      1.467603
O       5.47384      1.86066     12.52516         0.324138      0.054488      0.366301
O       5.66127     13.07622      0.30979        -0.287547      0.204599      0.833922
O       5.66534     13.08297     12.63232        -0.213928      0.084626      0.523197
O       5.70486      1.83473      4.35684        -0.192416      0.602735      0.769839
O       5.59129     13.03466      4.38690         0.322083      0.408101      0.296940
O       5.58600      1.85542      8.48251         0.081953      0.098720      0.292288
O       5.60460     13.16435      8.45792        -0.281607      0.051929     -0.175705
O       5.45509      5.57676      0.24785         0.941969      0.568029      0.433458
O       5.59970      5.62912     12.59739        -0.407435     -0.058294     -0.386461
O       5.66436      5.53678      4.40443        -0.416526     -0.104967      0.626715
O       5.70089      5.56425      8.50873        -0.589866      0.192463     -0.255523
O       5.58065      9.27055      0.29623        -0.027417      0.277118      0.351918
O       5.55886      9.49861     12.56431         0.044025     -0.504769     -0.028896
O       5.72416      9.36859      4.46673        -0.074814     -0.098592     -0.273316
O       5.49288      9.36712      8.43544         0.327906     -0.292319      0.298254
O       9.37013      1.83780      0.23051        -0.046398      0.350063     -0.293657
O       9.38988      1.97096     12.55249        -0.500566     -0.659938      1.148616
O       9.29966     13.02411      0.23796         0.013837      0.323678      0.296731
O       9.29347     13.16396     12.62532        -0.029538     -0.119785      0.976176
O       9.35904      1.72267      4.39458         0.023744      0.371814     -0.128341
O       9.42255     13.08062      4.38526         0.105341      0.120855      0.375478
O       9.41928      1.89503      8.53895         0.000010      0.060874     -0.289575
O       9.50137     13.05636      8.51360        -0.504439      0.112988     -0.353863
O       9.34538      5.62715      0.27387         0.224721     -0.358566      0.118112
O       9.33346      5.66405     12.48121         0.009778     -0.173455      0.575303
O       9.45994      5.76626      4.45357        -0.292114     -0.406735      0.111521
O       9.26253      5.63669      8.47232         0.058109     -0.256007      0.795484
O       9.38213      9.38575      0.27855         0.148139     -0.383936     -0.159713
O       9.29902      9.24097     12.58835        -0.050525      0.358939      0.548304
O       9.34499      9.39204      4.44401        -0.008865     -0.422441      0.430282
O       9.40500      9.45623      8.53421        -0.018566     -0.270150      0.355783
O       3.70264      1.95333      2.63563         0.631151     -0.144945     -0.369397
O       3.70608      1.86716     14.65510         0.206074      0.296746      0.235101
O       3.76079     13.12097      2.51766        -0.466566      0.123380     -0.217168
O       3.69700     12.96834     14.77026         0.408595      0.193479     -0.434356
O      15.00108      1.93022      2.26663        -0.600697     -0.391143      0.195758
O      14.97611      1.66833     14.84689        -0.317389      0.159931     -0.300411
O      15.00737     13.03851      2.33810         0.833500      0.382190      0.366727
O       0.00060     13.22605     14.70315        -1.945689     -0.069954      0.110489
O       3.73731      1.79084      6.41195         0.362191     -0.245158      0.008946
O       3.74848     13.32149      6.41322         0.692979      0.010700      0.072905
O      14.95142      1.96139      6.59186        -0.616702      0.118642     -0.338424
O      14.98621     13.06615      6.57712         0.991617     -0.694846      0.067661
O       3.63454      1.63455     10.45156         0.845968      0.252062      0.435095
O       3.73269     13.21388     10.72353        -0.794737     -0.104437     -0.624194
O      14.92552      1.98066     10.69974         1.078681     -0.287795      0.182816
O      14.91818     12.97614     10.68533         0.820820      0.381044     -0.451157
O       3.70252      5.61062      2.31917         0.349324      0.031209      0.485471
O       3.74214      5.53845     14.79278        -1.033599     -0.183197     -0.500432
O      14.98086      5.63144      2.51899        -0.411161     -0.191329      0.011273
O      14.94350      5.76899     14.63175         1.104308     -0.177753     -0.065013
O       3.68121      5.69366      6.53984         1.001525     -0.298823     -0.120260
O      14.98157      5.33673      6.48397        -0.351136      0.737538     -0.093806
O       3.64925      5.64822     10.60035        -0.053968      0.668662     -0.001950
O      14.91406      5.46275     10.65947         0.898360      0.066408     -0.073023
O       3.76259      9.26407      2.55426        -0.010260      0.398343     -0.272190
O       3.73297      9.46251     14.63865        -0.252003      0.108551      0.037915
O       0.01280      9.33510      2.44905         0.270167      0.243425     -0.514546
O      14.98651      9.25079     14.77219         0.560140      0.062962     -0.302557
O       3.75692      9.16331      6.40804        -0.584596     -0.241267      0.051930
O      14.98433      9.62282      6.47411        -0.274468     -0.084378      0.440399
O       3.75265      9.31307     10.63177        -1.679776      0.065359     -0.155037
O      14.95308      9.61118     10.59400        -0.023252     -0.555178     -0.455818
O       7.46006      1.84210      2.35272        -0.478706      0.264141      0.053722
O       7.43166      1.72000     14.76574        -0.317519      0.023148     -0.458464
O       7.45824     13.00073      2.52392         0.530756     -0.068648     -0.286399
O       7.48243     13.23756     14.81338        -0.297884     -0.046065     -0.595981
O       7.54019      1.93978      6.54720         0.071147      0.558694     -0.460146
O       7.58521     12.92894      6.52058        -0.539362      0.367459     -0.768045
O       7.43780      2.00233     10.57093         0.448628      0.118939     -0.011376
O       7.43849     13.03542     10.52513         0.678556      0.559781      0.297425
O       7.49231      5.59471      2.28690        -0.509281      0.037368      0.475728
O       7.42543      5.66444     14.69535         0.944675      0.287115      0.104489
O       7.52089      5.37692      6.44008        -0.989150      0.224775     -0.002154
O       7.39037      5.49180     10.65756         0.392841     -0.329098     -0.331661
O       7.53540      9.55476      2.44333        -0.579701     -0.472247     -0.165272
O       7.43927      9.29856     14.72881         1.047388     -0.554700     -0.093032
O       7.49239      9.52333      6.56456         0.174709     -0.093147     -0.054179
O       7.42515      9.53548     10.62252        -0.269050     -0.921185     -0.522463
O      11.15253      1.71946      2.38470         0.875720      0.246865      0.050682
O      11.16255      1.95912     14.64757         0.104594      0.466741     -0.055674
O      11.16979     13.15884      2.26272         0.672420      0.928284      0.480144
O      11.22062     12.87682     14.74056        -0.212880      0.343321      0.007556
O      11.31177      1.63597      6.46055        -0.938403      0.665464     -0.373998
O      11.30853     13.27872      6.51743        -0.507661     -0.156650     -0.273920
O      11.23592      1.75356     10.65432        -0.062803      0.626414      0.275306
O      11.20268     13.16797     10.66419         0.173344     -0.279293      0.111054
O      11.28891      5.69504      2.35956        -1.821595     -0.275190      0.161820
O      11.21047      5.47208     14.55853        -0.668012     -0.100512      0.560846
O      11.25955      5.86484      6.57839        -0.336282     -0.326911     -0.291244
O      11.19611      5.89030     10.43268        -0.346031     -0.343032      0.384622
O      11.22542      9.27363      2.50702         0.925806     -0.139907     -0.337515
O      11.25210      9.46811     14.58358         0.310287     -0.183058      0.589328
O      11.25045      9.02083      6.43269         0.989015      0.701415     -0.127499
O      11.16542      9.21119     10.69291         0.658815      0.257636     -0.589001
O       1.83739      3.75672      2.44464         0.161699     -0.122742      0.117741
O       1.66320      3.68967     14.74903         0.423760      0.494621     -0.779703
O       1.86613      0.02160      2.42511         0.054700     -0.506079      0.114864
O       1.89155     14.95544     14.81245         0.420658      0.121166     -0.140350
O      13.04596      3.73800      2.27866        -0.203412     -0.083138      0.360298
O      13.22230      3.78230     14.68295        -0.035228     -1.849119      0.013860
O      13.10922     14.97725      2.33561         0.318945      1.614214      0.764553
O      12.95229     14.95102     14.70834        -0.170797     -0.728853      0.201884
O       1.89377      3.74566      6.58412         0.613182      0.270809     -0.309262
O       1.70858     14.99298      6.57563         0.161099      0.251772     -0.194848
O      12.93311      3.74815      6.55328        -0.099458     -0.466005     -0.307098
O      13.22521     14.96195      6.26452         0.570831      1.320938      0.272890
O       1.94442      3.70676     10.62809        -0.293254      1.095591      0.023583
O       1.67840     14.98879     10.62561        -0.161497     -0.188495     -0.261461
O      12.98783      3.68963     10.54049        -0.572029      1.698962      0.558980
O      13.04736     14.99815     10.63622         0.830461     -0.301799      0.456920
O       1.86796      7.49607      2.29103        -0.163951     -0.662543      0.304285
O       1.91251      7.47083     14.68648         0.267683      0.882718      0.240823
O      13.14077      7.50111      2.36573         0.141448     -0.369041      0.013099
O      13.05205      7.47502     14.52558        -0.695156      0.832754      0.976507
O       1.63689      7.47426      6.54698        -0.051915     -0.695066      0.328718
O      13.41192      7.50012      6.54751        -0.156079     -0.306847     -0.081727
O       1.66491      7.56601     10.60277         0.256190     -1.052503     -0.111067
O      13.27604      7.50397     10.62636        -0.229352      0.255088     -0.289206
O       1.87806     11.18830      2.39598         0.122370      1.107999      0.238913
O       1.69303     11.24860     14.87460         0.496978     -0.331564     -1.060737
O      12.99491     11.27732      2.31817         0.295533     -1.695578      0.323853
O      13.22376     11.19131     14.84505         0.049930      1.084942     -0.495997
O       2.11289     11.21277      6.57562        -0.643699     -0.146183     -0.730510
O      12.93229     11.25741      6.51244         0.029147     -1.283772     -0.120566
O       1.88149     11.22854     10.56822         0.575039      0.718112      0.324672
O      12.91192     11.27735     10.60224         0.026001     -1.159659     -0.355121
O       5.69675      3.74489      2.27664        -0.547290     -0.166017      0.751646
O       5.61304      3.71410     14.72824         0.389880      0.639845     -0.327920
O       5.61508     14.96732      2.48271        -0.182947     -0.030849     -0.347645
O       5.44073     14.97889     14.66341         0.280718      0.061689      0.116364
O       5.55941      3.68649      6.59346        -0.444404      0.730204     -0.484804
O       5.88348     14.99497      6.48149        -0.639391      0.425197     -0.455824
O       5.30305      3.73555     10.76231         0.714447      0.016549     -1.035753
O       5.64819      0.01920     10.65951         0.233303     -0.315636     -0.000740
O       5.64104      7.55125      2.39334         0.432305     -1.606432      0.267823
O       5.43185      7.52003     14.60044         0.149502     -0.054870      0.297945
O       5.72773      7.39364      6.37130         0.303026      0.715672      0.785569
O       5.59781      7.48602     10.63621         0.124512      0.441812     -0.301352
O       5.53358     11.21185      2.48812        -0.176235     -0.074949     -0.094647
O       5.68054     11.21314     14.77985         0.003668      0.634094     -0.156257
O       5.37339     11.27839      6.44234         0.694433     -0.447095     -0.117287
O       5.55861     11.31745     10.56564        -0.757151     -0.901689     -0.072800
O       9.33836      3.64773      2.57791         0.339419      1.229566     -0.878270
O       9.12267      3.73923     14.64237         0.483216     -0.157484     -0.075318
O       9.15770     14.95675      2.29270         0.432503     -0.395044      0.176183
O       9.48138     14.98839     14.71312        -0.156635      0.056812     -0.149194
O       9.61396      3.75878      6.40693        -0.169625     -0.663129     -0.290399
O       9.24910     14.96759      6.38403         0.030464     -0.020972      0.635363
O       9.52156      3.77643     10.75009        -0.296545      0.655682     -0.954077
O       9.42909     14.97740     10.73051        -1.212087      1.039775     -0.496575
O       9.28463      7.52108      2.29918        -0.124999     -0.872403      0.210328
O       9.42637      7.44202     14.70037        -0.162025      0.258622      0.147474
O       9.15129      7.54508      6.72029         0.110265     -0.922084     -0.763497
O       9.06519      7.48678     10.66903         0.268768      0.371988     -0.950405
O       9.59483     11.23434      2.40001        -1.037622      0.019350      0.211683
O       9.18083     11.18912     14.68817         0.253223      0.440350     -0.285289
O       9.58953     11.19798      6.50909         0.011694      0.386153      0.063824
O       9.34409     11.26122     10.73376         0.650856     -0.629932     -0.422871
