  # total energy = -7866.81608329 
CRSYTAL
PRIMVEC
    15.010000000000000    0.0000000000000000    0.0000000000000000
     0.0000000000000000   15.010000000000000    0.0000000000000000
     0.0000000000000000    0.0000000000000000    16.400000000000000
PRESSURE
19.3697 19.287 11.1291 0.055867 -0.309841 -0.024916
PRIMCOORD
320 1
Pb       3.84950      3.84655      4.19359        -0.336692     -0.580646     -0.078086
Pb       3.75000      3.71501      0.06519        -0.044886     -0.220111     -0.227705
Pb       3.67230      0.04312      4.07706        -0.029362     -0.101311      0.683431
Pb       3.67300     14.91815     16.39859         0.260828      0.403925      0.054579
Pb      14.98974      3.67344      4.03699        -0.402714      0.141402      0.777321
Pb       0.04934      3.66189     16.35341        -0.373191      0.522228      0.130567
Pb       0.02461     14.98828      4.04627        -0.465072      0.265479      0.951820
Pb      14.94794     14.92495      0.08717         0.044415      0.082617     -0.016015
Pb       3.75295      3.78904      8.22137        -0.010786     -0.404115      0.090943
Pb       3.66222     14.92269      8.11940         0.089016      0.304032      0.402486
Pb      14.95927      3.78181      8.27307         0.164239      0.050539      0.331586
Pb      14.93567     14.99162      8.15899         0.839373     -0.235614      0.262089
Pb       3.57619      3.76250     12.30188         0.935368     -0.094334     -0.213344
Pb       3.72000     14.96964     12.35177         0.260589     -0.030189     -0.269733
Pb      14.99904      3.67705     12.38282        -0.827171     -0.089084     -0.357156
Pb      15.00360     14.95881     12.38533        -0.537473      0.552865      0.039609
Pb       3.78330      7.39905      4.06735        -0.472238      0.283590     -0.000705
Pb       3.71860      7.38839      0.05513         0.142135      0.416515      0.055166
Pb      14.97394      7.45390      4.11843        -0.031928      0.331986      0.382669
Pb      14.99503      7.52011     16.37330        -0.290681     -0.544754      0.258783
Pb       3.76014      7.48063      8.04259        -0.492214     -0.402853      1.675274
Pb      14.94979      7.48476      8.28358         0.224669      0.095583      0.343028
Pb       3.74568      7.62612     12.26707        -0.405129     -0.495060      0.371049
Pb      15.00110      7.43302     12.38698         0.204990      0.309169     -0.349082
Pb       3.73768     11.30550      4.24418        -0.028005     -0.508354     -0.485037
Pb       3.76507     11.18929     16.29484         0.032918      0.157712      0.986938
Pb       0.06764     11.26768      4.06803        -0.308549     -0.181396      0.558133
Pb      14.96819     11.26115      0.00248         0.124064      0.128469      0.527684
Pb       3.85678     11.24430      8.14333        -0.559846      0.189882      0.825950
Pb      14.97494     11.25637      8.25816        -0.106751      0.032111      0.211462
Pb       3.76329     11.34557     12.26866         0.300615     -0.222715      0.438691
Pb       0.02060     11.27025     12.33676        -0.310866     -0.223336     -0.050582
Pb       7.50324      3.60917      4.06184         0.097242      0.779578      0.388010
Pb       7.48107      3.73243     16.32368         0.285223      0.095214      0.271246
Pb       7.45353     14.93782      4.07802         0.393366     -0.254845      0.075313
Pb       7.37564      0.01814      0.01250         0.786342     -0.048050      0.187445
Pb       7.44879      3.71648      8.16841        -0.028946     -0.318555      0.238070
Pb       7.56816      0.06479      8.14283        -0.283018     -0.431216      0.687928
Pb       7.45492      3.74732     12.24797        -0.195062     -0.420634      0.540535
Pb       7.50934     14.89661     12.39096        -0.307384      0.883795     -0.217684
Pb       7.47280      7.53709      4.03006         0.329290     -0.005196      0.139050
Pb       7.48033      7.55828     16.39298        -0.099935     -0.219208      0.301239
Pb       7.42408      7.53156      8.26958         0.618953      0.102247      0.783605
Pb       7.46297      7.46542     12.33979         0.480549      0.001169     -0.362911
Pb       7.66231     11.30300      4.11149        -0.926498     -0.367908      0.398544
Pb       7.55261     11.21359     16.38230        -0.227415      0.118975      0.828012
Pb       7.52637     11.29699      8.14131         0.243744      0.276530      0.481798
Pb       7.48561     11.18364     12.30493         0.016424     -0.102907     -0.164182
Pb      11.15769      3.75432      4.04105         0.188647      0.119980      0.717656
Pb      11.20825      3.63073     16.34265        -0.145270      0.843144      0.585870
Pb      11.25099      0.00998      4.08456         0.161001      0.031796      0.052897
Pb      11.12043     14.89821      0.09111        -0.073766     -0.041966     -0.135863
Pb      11.13986      3.74157      8.10901         0.476103      0.355795      0.559220
Pb      11.18232      0.05443      8.18041        -0.043159     -0.876685      0.327129
Pb      11.26111      3.69950     12.38375         0.267428      0.178759     -0.362183
Pb      11.22930      0.08541     12.33644         0.139748      0.008396      0.098765
Pb      11.32138      7.46449      4.11933        -0.680133     -0.206957      0.739222
Pb      11.25441      7.53159     16.39919         0.277043     -0.428165     -0.113135
Pb      11.20182      7.47981      8.21179         0.327136      0.561369      0.658452
Pb      11.36124      7.50626     12.31120        -0.678966      0.042108     -0.493727
Pb      11.43087     11.16123      4.10402        -0.861892      0.344732      0.894616
Pb      11.37139     11.14341      0.00940        -0.792385      0.662472     -0.050482
Pb      11.24044     11.17482      8.21992         0.120717      0.429460      0.392435
Pb      11.27079     11.29786     12.27603        -0.086156     -0.712296      0.167150
Ti       1.87689      1.88601      2.17134        -0.149733     -0.294626     -0.191319
Ti       1.86201      1.80156     14.44320         0.243945      0.321705      0.547415
Ti       1.88148     13.14820      2.06798        -0.431174     -0.856716      0.713119
Ti       1.83410     13.07934     14.41228         0.258655      1.431289      0.364532
Ti      13.08490      1.89235      2.13354        -0.227510     -0.885822      0.796496
Ti      13.09169      1.74070     14.57117         0.088143      0.587299     -1.604442
Ti      13.15565     13.12340      2.21054         0.038307      0.477938     -0.153517
Ti      13.07871     13.10786     14.42632        -1.016064      0.146019     -0.492343
Ti       1.79172      1.92519      6.28866         0.419271     -1.220046     -0.630580
Ti       1.88236     13.04510      6.22078        -0.547837      1.070671      1.092510
Ti      13.12907      1.91293      6.22518         0.586300     -0.357512      0.650472
Ti      13.19082     13.11212      6.19990         0.139359      0.774221      0.237615
Ti       1.79754      1.83375     10.41865        -0.101479      0.322070     -0.792140
Ti       1.77067     13.10928     10.40257         1.275525      1.040161     -1.038089
Ti      13.07847      1.78365     10.20628         0.433867      1.963373      2.925531
Ti      13.08293     13.18553     10.39207        -0.674043     -1.112368     -1.074729
Ti       1.76403      5.59107      2.14968         0.519594      0.857094      0.157004
Ti       1.92208      5.63033     14.40551        -1.793261     -0.085942      1.364968
Ti      13.05955      5.56787      2.18838        -0.830484      0.938280     -1.284096
Ti      13.12211      5.52925     14.43757         0.231750      0.623412      0.585011
Ti       1.81039      5.59354      6.22364         0.447315      0.542143     -0.073680
Ti      13.16616      5.65251      6.25557        -1.747812     -1.371322     -0.901755
Ti       1.75049      5.69874     10.35682         1.147905      0.151611     -0.184294
Ti      13.07943      5.62740     10.36434        -0.803832     -0.953084     -0.588102
Ti       1.84036      9.36304      2.22130         0.246148      0.095243     -0.770789
Ti       1.85810      9.39637     14.51025         0.504049     -1.102588     -1.655733
Ti      13.08795      9.32660      2.16971         0.794302     -0.749136     -0.330893
Ti      13.18170      9.40709     14.34805        -1.644052     -1.402954      0.430554
Ti       1.81699      9.33649      6.23806        -0.357174     -0.092281     -0.549001
Ti      13.15369      9.39752      6.30851        -1.006356     -0.529731      1.183928
Ti       1.85950      9.46829     10.35157         0.368369     -1.520454     -0.631115
Ti      13.22596      9.39907     10.36215        -1.731748     -0.238999     -0.797783
Ti       5.57017      1.80468      2.13031        -0.870488      0.071951      0.745611
Ti       5.57987      1.85073     14.43228         0.060182      0.281616      0.234257
Ti       5.55453     13.05447      2.20007         1.054137     -0.747027      0.289998
Ti       5.66840     13.14352     14.54160        -1.631988     -0.367100     -0.785764
Ti       5.58246      1.76869      6.18693        -0.057178      1.261577      0.405713
Ti       5.67790     13.11474      6.17122         0.491887      0.326411      0.073709
Ti       5.57426      1.79578     10.36221         0.124406      0.396823      0.393644
Ti       5.64429     13.13349     10.35471        -0.720479     -0.265709     -0.736825
Ti       5.65596      5.57816      2.11553        -0.279052     -0.206411     -0.851464
Ti       5.64442      5.59173     14.43833        -0.398699      1.114551     -0.359168
Ti       5.69953      5.55489      6.27772        -0.437992      0.007219     -0.376666
Ti       5.53095      5.60775     10.40217         0.184052     -0.609257     -0.023840
Ti       5.50937      9.36089      2.16864         1.680867      0.113472     -0.627058
Ti       5.58230      9.40182     14.39134         0.599875     -0.817310      0.587534
Ti       5.57665      9.37243      6.24134         0.944297     -0.141898      0.585949
Ti       5.62946      9.32387     10.31112        -0.459613      1.479537     -0.423947
Ti       9.28487      1.82788      2.09160         1.386224      0.268604     -0.491132
Ti       9.38438      1.88450     14.39705        -1.470606     -0.921988      0.140305
Ti       9.41452     13.09390      2.12097        -0.326739      0.092218      0.032381
Ti       9.30926     13.11744     14.37541         1.055059      0.666229      0.865382
Ti       9.41318      1.89658      6.18418        -0.944692      0.047772     -0.633245
Ti       9.48367     13.15866      6.24963        -0.228405     -1.259359      0.270818
Ti       9.33019      1.90404     10.38536         0.360041     -0.336434     -0.200428
Ti       9.34434     13.12618     10.45738         0.621294      0.508325     -1.654655
Ti       9.34016      5.63991      2.08415        -0.384085     -0.171719     -0.457097
Ti       9.39068      5.67935     14.37903        -0.049652     -0.632795      0.454199
Ti       9.38088      5.71866      6.27617         0.211593     -1.288596     -0.825748
Ti       9.31116      5.59000     10.31528         0.397426      1.562475      1.152790
Ti       9.42511      9.39535      2.19504        -1.277347     -0.309865     -0.198976
Ti       9.34879      9.40980     14.46321         1.123618      0.457896     -1.192853
Ti       9.32877      9.36129      6.22158         1.326538      0.426248     -0.585401
Ti       9.39447      9.40910     10.35939         0.386872     -1.322975      0.863430
O       2.04189      1.83138      0.39146        -0.422118      0.438141     -0.734708
O       1.78925      1.69557     12.67150         0.195842      0.674492     -0.324355
O       1.83322     13.15010      0.28156        -0.116627     -0.270670     -0.111822
O       1.88385     13.07932     12.62188        -0.414259      0.272730     -0.350439
O      12.92880      1.91224      0.37723         0.629101     -0.374078     -1.339920
O      13.10951      1.68486     12.73757        -0.261101      0.390392      1.166241
O      13.29330     13.15820      0.41997        -0.704583     -0.353518     -0.791670
O      13.13560     13.05398     12.60226        -0.327748      0.180798      0.656945
O       1.72645      1.82517      4.45893         0.127169      0.554484      0.196727
O       1.77137     13.14376      4.48545         0.159290     -0.242937     -1.333000
O      13.22586      1.87916      4.49401        -0.236432      0.174412     -1.988237
O      13.21536     13.13518      4.40528        -0.199936     -0.457865     -0.337899
O       1.76799      1.87774      8.61136         0.358728     -0.138857     -0.157471
O       1.74901     13.03862      8.60184         0.486155      0.108578     -0.682384
O      13.18531      1.79246      8.45596        -0.542117      0.173452      0.003810
O      13.10473     13.13230      8.57309         0.073201      0.461132     -0.042124
O       1.74156      5.62475      0.36073         0.126524     -0.224156     -0.326124
O       1.74169      5.70250     12.66840         0.415478     -0.020496     -1.255206
O      13.04574      5.68887      0.36934         0.226483     -0.442504     -0.015100
O      13.06346      5.53260     12.63607         0.203189      0.666654     -0.148131
O       1.80759      5.63939      4.40107         0.265004     -0.084684      0.186098
O      12.99440      5.58966      4.41476         0.315692      0.247946      0.707098
O       1.74763      5.67566      8.55187         0.212206     -0.574783      0.016961
O      13.17522      5.53725      8.52475        -0.181033      0.219698      0.264262
O       1.84881      9.35867      0.38509         0.231616      0.241801     -0.615658
O       1.82297      9.35783     12.64501        -0.088010     -0.001246      1.180049
O      12.88635      9.35963      0.37269         1.133080     -0.171184     -0.077538
O      13.21362      9.44090     12.56386        -0.291214     -0.273427      0.062854
O       1.85641      9.28888      4.40075        -0.068640      0.118267      0.447858
O      13.05402      9.38125      4.57071         0.321286     -0.119925     -2.438796
O       1.80986      9.38970      8.54985        -0.017795      0.401576     -0.699213
O      13.16674      9.34058      8.49527        -0.143084      0.061860     -0.017714
O       5.44975      1.84385      0.38603         0.054880      0.320265     -1.066607
O       5.54724      1.78230     12.70518         0.013357      0.066371     -1.482558
O       5.53606     13.07904      0.42222         0.108502     -0.164393     -0.855162
O       5.62037     13.07555     12.72919         0.188457      0.124021     -0.225818
O       5.59248      1.92556      4.41699         0.265221     -0.408107     -0.958679
O       5.72639     13.12604      4.38351        -0.449088     -0.114071     -0.173179
O       5.52496      1.85467      8.58284         0.164020     -0.422925     -0.525969
O       5.63976     13.13445      8.54378        -0.000289      0.100156     -0.260500
O       5.82444      5.67658      0.26084        -0.995253     -0.345452      0.651786
O       5.47244      5.66983     12.63366         0.564704     -0.231304      0.163629
O       5.57400      5.57945      4.45516         0.058775      0.164971     -0.072571
O       5.55287      5.55396      8.58478         0.452362     -0.034614     -0.468398
O       5.53281      9.27785      0.34535        -0.230539      0.348871      0.154045
O       5.55866      9.42612     12.60706         0.299734     -0.067839     -0.630992
O       5.57563      9.37416      4.49019         0.063473     -0.514246     -0.536394
O       5.50943      9.42417      8.49155         0.388268     -0.035575      0.356190
O       9.40945      1.80363      0.25965        -0.358300      0.163193      0.694551
O       9.32178      1.77070     12.59778         0.184907      0.472652     -0.088534
O       9.29925     13.10136      0.33596         0.253117     -0.026097      0.412905
O       9.18167     13.09517     12.59034         0.562823      0.057485     -0.467494
O       9.45577      1.88165      4.35044        -0.790135     -0.479205      0.713959
O       9.40826     13.14288      4.49513         0.130737      0.275393     -1.151469
O       9.32674      1.90809      8.55693         0.178855     -0.134410     -0.714328
O       9.42991     13.11937      8.61783        -0.119589      0.124344     -0.628911
O       9.22190      5.50675      0.28516         0.370650      0.517098      0.226865
O       9.26559      5.60791     12.60216         0.539481      0.375521      0.189301
O       9.35229      5.68995      4.50948         0.062423      0.079335     -0.932289
O       9.16580      5.50626      8.54864         0.477254      0.208789     -1.157446
O       9.55024      9.45247      0.38509        -0.476571      0.345339     -0.595574
O       9.32894      9.41826     12.62394        -0.064046     -0.219953      0.905563
O       9.39562      9.31391      4.40171        -0.540478     -0.017807      0.641695
O       9.50586      9.41944      8.60804        -0.574411      0.058096     -1.940160
O       3.71076      1.92414      2.61760        -0.398467     -0.026710     -0.350598
O       3.72372      1.87619     14.72878        -0.852445      0.229957      0.201430
O       3.68633     13.03658      2.61201        -0.299176      0.361340     -0.532249
O       3.72177     13.08728     14.63520        -0.373355      0.025572      0.566856
O      14.96109      1.90788      2.27629         0.365121     -0.082937      0.218909
O      14.96090      1.80753     14.83155         0.330541     -0.271560      0.173990
O      14.99841     13.18768      2.40780         1.150144     -0.337468      0.124785
O      14.90007     13.23414     14.71953         1.471240     -0.120957      0.030489
O       3.73278      1.76485      6.46429        -1.138405     -0.089545      0.389401
O       3.82226     13.17549      6.39868        -1.333225     -0.167885      0.534321
O      14.97183      2.07201      6.67298         0.635111      0.079131     -0.531920
O       0.02289     12.78919      6.53626        -0.170921      0.757166     -0.070981
O       3.69197      1.80026     10.69991        -0.441944     -0.025174      0.051091
O       3.71058     13.23442     10.52932        -0.007195     -0.083229      0.600147
O      14.91465      1.84744     10.84726        -0.514826      0.262955     -1.018109
O      14.91544     13.07476     10.63104         0.823664     -0.179610      0.433152
O       3.71658      5.57185      2.36954        -0.061085      0.029936     -0.048758
O       3.68519      5.55657     14.81485         1.496533     -0.031754      0.133450
O      14.84824      5.75791      2.52933         1.893651     -0.651254     -0.515996
O      14.96410      5.73300     14.74457         0.610263     -0.255940      0.054353
O       3.75365      5.62367      6.53998        -0.408696      0.619112     -0.288012
O      14.95385      5.45046      6.46847         1.317959     -0.750783      0.174302
O       3.68708      5.62099     10.73371        -0.790572      0.049082     -0.420144
O      14.93193      5.63420     10.67613         0.127007     -0.230031      0.286482
O       3.69744      9.43139      2.52748        -0.300514     -0.677837      0.011554
O       3.74255      9.51288     14.62786        -0.652073     -0.115018      0.392960
O      14.97323      9.21152      2.45242        -0.880369      0.391983     -0.045080
O      14.98128      9.41042     14.78242         0.547298     -0.479342      0.142997
O       3.69560      9.14595      6.51865         0.742610      0.798351     -0.494728
O      14.98321      9.59801      6.41092         0.799207     -0.155716      0.524251
O       3.67713      9.19940     10.58069         1.207294      0.840377      0.126079
O       0.00040      9.33504     10.66559         0.299917      0.598829      0.188266
O       7.42260      1.82712      2.27092         0.368179     -0.169983      0.601125
O       7.42434      1.76804     14.68143         1.027069      0.311270      0.588211
O       7.52948     13.09364      2.48621        -1.029040     -0.028497     -0.196733
O       7.46747     13.16479     14.79343        -0.044823      0.091123      0.267951
O       7.46065      1.92502      6.46002         0.957247     -0.269884      0.200993
O       7.53460     13.01956      6.42049         0.395484      0.235967      0.704452
O       7.49747      1.95620     10.62042        -1.023261      0.116662      0.050462
O       7.51767     13.21290     10.60125        -1.527939     -1.041713      0.241294
O       7.46952      5.60562      2.45895         0.180438     -0.119736      0.395106
O       7.51510      5.76853     14.66218        -0.656984     -0.517858     -0.198713
O       7.52925      5.39984      6.40031        -1.333664      0.221020      0.661535
O       7.43609      5.49080     10.73722        -0.372916      0.556117     -0.395498
O       7.45654      9.40855      2.46496         0.272680     -0.031651     -0.194579
O       7.49106      9.41919     14.81876        -0.334453     -0.166308     -0.355837
O       7.52994      9.50118      6.63166        -0.978675     -0.191972     -0.232841
O       7.46511      9.33984     10.63824        -0.268894      0.769423     -0.111627
O      11.20412      1.79926      2.33639        -0.551525      0.099610      0.555242
O      11.19439      1.93808     14.64598         0.436537     -0.431107      0.212958
O      11.33929     13.29198      2.40527        -2.051899     -0.740216      0.019497
O      11.15025     13.01814     14.73944         1.205850      0.093277     -0.169765
O      11.27359      1.77381      6.52040        -1.129225     -0.701577      0.168502
O      11.36139     13.33829      6.51330        -0.797819      0.170867      0.097001
O      11.24741      1.87167     10.70434         0.074556     -0.737039     -0.405849
O      11.20215     13.00973     10.69843         0.744461      1.092596      0.228938
O      11.11593      5.55352      2.49983         0.941942      0.269997     -0.359083
O      11.26636      5.59470     14.66817        -1.208821      0.110387      0.185115
O      11.25702      5.73989      6.63131        -0.707148      0.087786     -0.017685
O      11.19646      5.75131     10.61960        -0.259611     -0.005424      0.010023
O      11.25521      9.34874      2.57841        -0.192113      0.510707     -0.198450
O      11.27662      9.51044     14.73061        -0.325096     -0.094671     -0.484856
O      11.22383      9.18689      6.43791        -0.085411     -0.303100      0.817302
O      11.27166      9.31919     10.62522         0.131384      0.140791      0.515787
O       1.69077      3.73148      2.35090         0.422323      0.714906      0.249506
O       1.76454      3.73536     14.58940        -0.025763     -0.198926      0.590479
O       1.81750     15.00925      2.46701         0.567444     -0.324826     -0.406821
O       1.85884     14.98948     14.77391        -0.008041     -0.639565      0.038405
O      13.02083      3.75479      2.51410         0.404594     -0.767078     -0.299671
O      13.09599      3.66339     14.73822         0.386801      0.613149      0.165484
O      13.15920      0.02567      2.54907        -0.009461      0.120608     -0.524874
O      12.90406     14.91612     14.88639         0.417164      0.614224     -0.112909
O       1.96455      3.75971      6.56765        -0.015509     -0.066145      0.045334
O       1.75331     14.97359      6.51843        -0.169612      0.048515      0.402100
O      12.84986      3.73267      6.47393         0.712857      0.614876      0.347575
O      13.47147      0.02246      6.40386        -0.691095     -1.033050      0.211481
O       1.70618      3.74766     10.69604         0.658605      0.118710      0.209087
O       1.69847     14.99599     10.69079         0.313856     -0.500174     -0.103077
O      12.92687      3.75953     10.77875         1.103850     -1.187790     -1.014778
O      13.10290      0.00632     10.80250        -0.249953     -0.275438     -0.996866
O       1.88300      7.47985      2.35592         0.164856     -0.361228      0.412936
O       1.98641      7.51617     14.79776        -0.582679      0.255045     -0.120453
O      12.91248      7.46121      2.47948         0.553698      0.495117     -0.234494
O      13.04465      7.51228     14.67334         0.141826      0.429078     -0.119335
O       1.67850      7.44871      6.58906         0.138728      0.314930     -0.376238
O      13.39096      7.43911      6.49058        -0.643884      1.521349      0.167159
O       1.73974      7.56429     10.59798         0.095412     -1.293540      0.480960
O      13.11323      7.48869     10.50536         0.196750      0.292635      0.897808
O       1.71322     11.26648      2.40854         0.363370      0.101230      0.009095
O       1.77857     11.28009     14.67944        -0.297945     -0.644373      0.562692
O      13.07778     11.19480      2.40397         0.455945      0.582986      0.115369
O      13.21938     11.26121     14.71634        -0.207649     -0.102377      0.399679
O       2.00888     11.20739      6.39070         0.662515     -0.661727      0.471453
O      12.94062     11.27044      6.50833        -0.143979     -0.353640      0.108689
O       1.93386     11.26832     10.74837        -0.404152      0.143432     -0.207115
O      13.09812     11.22538     10.54311         0.063485      0.701325      0.389353
O       5.56981      3.69096      2.39441         0.221862      0.784162      0.054429
O       5.61257      3.75030     14.63692         0.147960      0.157179      0.600375
O       5.47849     14.92470      2.37184         0.284246      0.635026      0.481677
O       5.54657      0.01164     14.91760        -0.152702     -1.095229     -0.434643
O       5.48090      3.66944      6.50848         0.145869      1.037165      0.295632
O       5.64301     14.97702      6.42543         0.478849     -0.576802      0.559815
O       5.52657      3.68471     10.69401        -0.210914      0.378623      0.134396
O       5.65368     14.95019     10.81632        -0.107337      0.896231     -0.469023
O       5.67757      7.44774      2.40563        -0.822829      0.211680      0.444656
O       5.54920      7.53807     14.61300        -0.149079     -0.283530      0.470512
O       5.80387      7.50460      6.70156        -0.672855     -0.738302     -1.308180
O       5.64420      7.51347     10.57082        -0.012619     -1.208172      0.345117
O       5.46903     11.16324      2.52342         0.709964      1.468686     -0.184765
O       5.61608     11.25838     14.83990         0.412885      0.111771     -0.124287
O       5.61858     11.25388      6.55061        -0.629499     -0.568394     -0.171321
O       5.48901     11.24475     10.61037         0.357534      0.051216      0.009111
O       9.30216      3.73349      2.45868        -0.206207     -0.676782     -0.388283
O       9.33115      3.72482     14.76315        -0.485782      0.728213     -0.537955
O       9.28824     14.95251      2.46079         0.213120      0.723920     -0.057963
O       9.34982     14.97084     14.73142         0.193193      0.576910     -0.000402
O       9.38865      3.72887      6.41712         0.719476     -0.187000      0.481359
O       9.30814     14.97285      6.56539        -0.022099      1.552889      0.071448
O       9.47903      3.78743     10.65452        -0.291556     -0.890966      0.320658
O       9.21954      0.05001     10.59986         1.000613     -0.760988      0.217406
O       9.35593      7.55118      2.27799        -0.239696     -1.370231      0.384139
O       9.36894      7.57294     14.74448         0.359548     -0.840759     -0.074495
O       9.13194      7.48668      6.62989         0.338097      0.842735      0.154454
O       9.25571      7.53155     10.54654        -0.078509     -1.099737      0.487446
O       9.32922     11.24862      2.56824         1.125329      0.639809     -0.658743
O       9.27138     11.32238     14.69712        -0.282889     -1.662945      0.280176
O       9.54700     11.26159      6.47440        -0.109959     -0.382839      0.312972
O       9.38583     11.24706     10.66384        -0.637558      0.293755      0.254919
