  # total energy = -7878.84750753 
CRSYTAL
PRIMVEC
    15.6000000000000000    0.0000000000000000    0.0000000000000000
     0.0000000000000000   15.6000000000000000    0.0000000000000000
     0.0000000000000000    0.0000000000000000    17.640000000000000
PRESSURE
-4.83508 -4.81744 -0.377819 0.127383 -0.489643 0.027892
PRIMCOORD
320 1
Pb       3.92735      3.90809      4.28344         0.180997      0.034200     -0.072364
Pb       3.81783      3.71969     17.57191         0.514687      0.731382     -0.229001
Pb       4.00335      0.07636      4.41608        -0.310212     -0.333592     -0.201153
Pb       3.99817     15.56005     17.51580        -0.454007      0.041011      0.040735
Pb      15.58803      3.85165      4.30897        -0.348780      0.519635     -0.031540
Pb      15.52643      3.76609     17.55303         0.654631      0.291224      0.119527
Pb       0.00639      0.02086      4.32637        -0.033119     -0.454289      0.201326
Pb       0.13839     15.52913     17.63705         0.258001     -0.104437     -0.746303
Pb       3.90910      3.83124      8.75432         0.302361     -0.336561     -0.803811
Pb       3.86123     15.59778      8.76206         0.093210      0.083330      0.053953
Pb       0.04870      3.79363      8.72074        -0.058409      0.149504      0.049430
Pb       0.06320      0.02639      8.92220        -0.729816     -0.310544     -0.445857
Pb       3.73073      4.06594     13.10819         0.721652     -0.431133     -0.273969
Pb       3.90512      0.06911     13.20826        -0.307883     -0.246604     -0.420152
Pb      15.54694      3.82508     13.25342        -0.019908      0.290430     -0.876233
Pb      15.59232     15.59587     13.17575        -0.195051     -0.041901     -0.211153
Pb       3.84223      7.80917      4.18623         0.188514     -0.270296     -0.085119
Pb       3.78218      7.81121     17.57690         0.094546     -0.488157     -0.248888
Pb      15.50763      7.68788      4.42824         0.506808     -0.410626     -0.331653
Pb      15.44688      7.77487      0.00519         0.450933     -0.080494      0.010159
Pb       3.80967      7.76199      8.76911         0.457261      0.230839     -0.679530
Pb       0.06033      7.81840      8.63820         0.612210     -0.201292      0.144617
Pb       3.86468      7.90855     13.17774         0.293229     -0.487288      0.309046
Pb      15.43254      7.82067     13.18831         0.081354     -0.356248     -0.180603
Pb       3.90692     11.59819      4.30881        -0.525983      0.611269      0.181981
Pb       3.89374     11.65418     17.54349         0.311080     -0.298161      0.063913
Pb       0.01847     11.60953      4.42391         0.223192      0.754494     -0.083847
Pb       0.00813     11.55564      0.10156        -0.010916      0.500204     -0.486764
Pb       3.90927     11.72036      8.66579        -0.543138     -0.059108      0.628218
Pb       0.03738     11.53476      8.79064         0.204269      0.352951     -0.970982
Pb       3.93943     11.53677     13.23001         0.027796      0.920941     -0.249802
Pb       0.11918     11.60954     13.25831        -0.069459      0.654283     -0.322493
Pb       7.80507      4.00234      4.30868        -0.328364     -0.278325     -0.558719
Pb       7.86805      3.81143     17.53563        -0.991420      0.114498     -0.152281
Pb       7.98507      0.00404      4.36702        -1.084506     -0.145681     -0.076347
Pb       7.85017     15.42034     17.61785        -0.175266      0.387919     -0.453469
Pb       8.01436      3.89730      8.69258        -1.121221      0.274018      0.382639
Pb       7.74297     15.55980      8.67662         0.210758     -0.041828      0.350065
Pb       7.61141      3.81376     13.10667         0.385352      0.220689     -0.559002
Pb       7.73023     15.50519     13.16670         0.218476      0.598035      0.000698
Pb       7.66716      7.81704      4.34448         0.038050     -0.040957     -0.747833
Pb       7.80380      7.76611     17.49823        -0.154274      0.106710      0.209891
Pb       7.88814      7.81754      8.75987        -1.055643     -0.201068      0.367454
Pb       7.86731      7.67890     13.19098        -0.244145     -0.359829     -0.527050
Pb       7.71694     11.65433      4.33560         0.227563      0.115020     -0.669311
Pb       7.77402     11.72638     17.59582        -0.155800     -0.176136     -0.238933
Pb       7.76042     11.62286      8.76544        -0.464486      0.128535      0.272738
Pb       7.76961     11.52037     13.21895        -0.315371      0.714437     -0.268789
Pb      11.60996      3.90793      4.31991         0.490528      0.156231     -0.338202
Pb      11.63887      3.93364     17.51300        -0.125160     -0.051946      0.071226
Pb      11.79250      0.05110      4.36571        -0.191025      0.256226     -0.405318
Pb      11.82897      0.04400     17.52491        -1.070923     -0.091042      0.120894
Pb      11.73375      3.89544      8.77387        -0.367891      0.184922     -0.196178
Pb      11.56693     15.54328      8.82131         0.373692      0.276351     -0.256600
Pb      11.60492      3.85979     13.21730        -0.230651     -0.265715     -1.048137
Pb      11.73684      0.04481     13.23138        -0.150725     -0.299370     -0.329104
Pb      11.64995      7.86252      4.38378        -0.399735     -0.502655     -0.303238
Pb      11.83304      7.88462     17.62567        -0.613411     -0.298670     -0.321943
Pb      11.82153      7.77100      8.78275        -0.918321     -0.004131      0.000717
Pb      11.66431      7.87090     13.21251        -0.031243     -0.053507     -0.796305
Pb      11.72987     11.76159      4.55508         0.053697     -0.094246     -0.830677
Pb      11.59072     11.78571      0.11569        -0.167704     -0.034524     -0.713320
Pb      11.56754     11.75908      8.81657         0.292121     -0.135182     -0.291557
Pb      11.81050     11.68194     13.28820        -0.320785      0.486135     -0.739854
Ti       1.96490      1.86538      2.40507        -0.530961      0.661782      1.508687
Ti       1.92111      1.88091     15.47944         0.031888      0.215762      1.927958
Ti       1.84052     13.67147      2.25842         0.390695     -0.823689      0.949256
Ti       1.95601     13.50635     15.59947         0.470741      0.833679      0.033072
Ti      13.66268      1.92491      2.24119        -0.638690      0.547411      1.813618
Ti      13.57992      1.97156     15.62154         0.487172     -0.862284     -0.130487
Ti      13.56127     13.61461      2.33694         0.607142     -0.200444      1.457147
Ti      13.75807     13.74184     15.55063        -0.402858     -0.996484      0.195558
Ti       1.82329      1.90700      6.76131         0.874529     -0.057867      0.401123
Ti       1.78769     13.75697      6.84115         0.475017     -1.615858      0.594352
Ti      13.45447      2.01066      6.70519         1.008325     -1.240267      3.114159
Ti      13.54937     13.70848      6.88586         0.706157      0.246060      0.979137
Ti       1.88516      1.97185     11.17407         0.304558     -0.341330      0.301593
Ti       1.86822     13.59117     11.22684         0.594475      0.569008     -0.168024
Ti      13.62995      2.00477     11.22704        -0.189833     -0.748001      0.987673
Ti      13.54848     13.66781     11.20781        -0.188207      1.533303      0.023852
Ti       2.00494      5.75973      2.21270        -0.621082      0.661646      2.640457
Ti       1.87147      5.84062     15.57091         1.121952     -0.614122      1.584561
Ti      13.62078      5.85417      2.32763         0.158872     -0.852096      0.728240
Ti      13.68239      5.84520     15.64243        -0.597455      0.773028      0.549097
Ti       1.96637      5.74850      6.68813         0.096153      0.644281      1.799328
Ti      13.69366      5.78455      6.88730        -0.298325      0.205039     -1.353827
Ti       1.92561      5.87082     11.13925        -1.061657     -0.433478      1.852522
Ti      13.59758      5.93836     11.14324         0.867382     -1.129326      0.279029
Ti       1.84289      9.72500      2.40609         0.768458     -0.470308      1.387272
Ti       1.81468      9.69429     15.65429         0.736681     -0.058600     -0.263877
Ti      13.59824      9.71289      2.54831        -0.372473      0.687056     -0.691790
Ti      13.52952      9.92725     15.73082         0.715417     -0.542991     -0.486813
Ti       2.01975      9.71559      6.65301        -0.535137      0.546159      0.901587
Ti      13.60544      9.63935      6.80300        -0.063228      1.333238      1.528263
Ti       1.92471      9.63459     11.22304        -0.017602      1.190000     -1.172005
Ti      13.67375      9.85610     11.08803        -1.360136     -0.475614      0.006340
Ti       5.85841      1.87705      2.36216        -0.029760      0.842573      0.248683
Ti       5.81465      1.90996     15.54942         0.060762      0.650329      0.817407
Ti       5.73101     13.61362      2.26046         0.559446      0.031428      0.485014
Ti       5.84892     13.58674     15.67507        -0.183536     -0.284064      0.449845
Ti       5.85041      1.91966      6.72700        -1.644130      0.901660      1.066771
Ti       5.76571     13.64520      6.77270        -0.160154     -0.117507      1.068873
Ti       5.76846      1.92480     11.12527         0.555728      0.761408      0.293044
Ti       5.71818     13.64417     11.26624         0.240685     -0.591696      0.523855
Ti       5.84564      5.77249      2.21923        -0.062708      0.334986      1.198853
Ti       5.75654      5.86142     15.63156        -0.259185     -1.170941      0.696361
Ti       5.80136      5.82771      6.67376         0.331330      0.185528      1.666464
Ti       5.82211      5.93982     10.98075         0.629057     -1.286409      2.794508
Ti       5.77722      9.78744      2.26612         0.333005     -1.184950      0.848055
Ti       5.80857      9.62892     15.58637        -0.555619      1.560603     -0.101413
Ti       5.80808      9.75948      6.72493        -0.252816     -1.562483      1.910908
Ti       5.85616      9.70111     11.25546         0.198982      1.111804     -1.194106
Ti       9.74296      1.95428      2.35256        -0.081296      0.445933     -0.114441
Ti       9.64433      1.92087     15.56640        -0.268930     -0.572755     -0.698310
Ti       9.69608     13.66043      2.33243        -1.099003     -0.865055      0.487897
Ti       9.82909     13.65702     15.59118        -1.112056     -0.213066      0.341173
Ti       9.65701      1.99989      6.61647         0.756741     -0.811413      0.075609
Ti       9.69239     13.62681      6.73446        -0.687368      0.649127      2.077827
Ti       9.75351      1.79871     11.14018        -0.965947      1.042628      1.975815
Ti       9.63331     13.59116     11.17143         0.195090      1.156028     -0.043574
Ti       9.76839      5.83622      2.21204        -0.095405      0.335214      1.337758
Ti       9.70915      5.80891     15.50289        -0.190772      0.708238      1.417907
Ti       9.69998      5.85324      6.68368        -0.151234      0.187710      4.163402
Ti       9.75897      5.81239     11.14790        -1.133668     -0.512688      1.464565
Ti       9.69840      9.68970      2.28010        -0.295424      0.605056      2.125562
Ti       9.68614      9.73881     15.55913        -0.139126      0.084175      1.270455
Ti       9.67255      9.72027      6.81217         0.003846     -0.224498     -0.106541
Ti       9.73037      9.77515     11.24303         0.109427     -0.745941     -0.924144
O       2.11134      1.99298      0.73951        -0.649951     -0.460320     -2.054002
O       1.86303      1.92999     13.77693         0.156848      0.165955     -1.010952
O       1.85266     13.64137      0.51103        -0.130980     -0.093586      0.444312
O       1.91273     13.40103     13.82706         0.140454      0.138392      0.310610
O      13.66082      1.95237      0.52426        -0.195896     -0.103174     -1.022028
O      13.63912      1.85061     13.88772        -0.081373      0.656853      0.420434
O      13.60079     13.48350      0.63988        -0.132542      0.235872     -1.404282
O      13.64315     13.74088     13.80491         0.096987     -0.352515      0.453699
O       1.90951      1.69589      5.04302        -0.101967      0.200747     -1.266707
O       1.69901     13.74325      5.13517        -0.114755      0.268147     -1.127802
O      13.48561      2.03771      5.04917         0.044707     -0.499522     -3.032879
O      13.51553     13.56530      5.14414        -0.252225      0.300938     -0.499051
O       1.79097      2.01506      9.40414         0.108289     -0.128850     -0.054041
O       1.88823     13.75573      9.45743        -0.284130     -0.455828      0.565405
O      13.61011      1.88856      9.50441        -0.124778      0.578916     -0.732931
O      13.40775     13.87218      9.44529         0.269115     -0.748867      0.714324
O       1.98885      5.86511      0.51960        -0.340739     -0.148209     -0.737851
O       1.87167      5.63041     13.85246         0.028375      0.611974     -0.677131
O      13.72909      5.70627      0.56648        -0.547311      0.606335      0.155121
O      13.70428      6.11453     13.93220         0.019689     -0.677380     -0.360787
O       1.87805      5.81249      5.00206         0.112323     -0.078726     -1.524197
O      13.69433      5.83410      5.11810        -0.044774      0.301483      0.544465
O       1.82265      5.90595      9.46560         0.175971      0.205903     -1.901316
O      13.62386      5.74296      9.38116        -0.170719      0.352027      0.287731
O       1.80017      9.61578      0.69433        -0.149786      0.562630     -1.467611
O       1.84613      9.73846     13.91786        -0.481024      0.493847     -1.131603
O      13.58744      9.81788      0.78713         0.172972     -0.076817     -0.672790
O      13.62384      9.91886     13.98077        -0.581723     -0.366086     -0.391058
O       1.95750      9.79423      4.90941         0.253660     -0.217094     -0.552792
O      13.56536      9.56991      5.08464         0.160381      0.446500     -1.107359
O       1.91666      9.70264      9.43747        -0.110765     -0.429609      1.227467
O      13.61887      9.76981      9.33401         0.071813     -0.006088      0.169569
O       5.65477      1.98478      0.64954         0.499508     -0.246078     -0.853559
O       5.84105      2.01281     13.83336        -0.386436     -0.431540     -0.689005
O       5.84207     13.41567      0.48721        -0.143515      0.627755      0.941757
O       5.77633     13.64580     13.96803        -0.114593     -0.056572     -1.733071
O       5.73881      1.93981      4.98739         0.093982     -0.316226     -0.605167
O       5.70086     13.52976      5.06880         0.243733      0.357082     -0.432510
O       5.61667      1.89882      9.39156         0.392945      0.011577     -0.169677
O       5.72604     13.65719      9.55931         0.133654      0.098707     -1.429331
O       5.67436      5.63939      0.55238         0.393439      0.639796     -1.727871
O       5.78437      5.84743     13.89758        -0.245059      0.266909     -0.377416
O       5.83314      5.73236      4.94902        -0.195664      0.328482     -1.213303
O       5.87597      6.03916      9.31942        -0.116651     -0.478459     -1.808617
O       5.90826      9.77463      0.55683        -0.317144      0.133224     -1.027151
O       5.85830      9.70842     13.80035        -0.011240     -0.164715      0.015272
O       5.67349      9.69506      5.00650         0.371127      0.205465     -0.759291
O       5.82130      9.86824      9.53156        -0.007723     -0.402326     -0.351360
O       9.79130      1.98521      0.59481        -0.448354      0.005914      0.044659
O       9.61959      1.94880     13.79917         0.442882     -0.036957      0.811919
O       9.59421     13.66113      0.56892         0.431233      0.113106      0.450471
O       9.66622     13.56573     13.87641         0.161116      0.124734     -0.408204
O       9.72190      2.16432      4.84231        -0.261776     -0.646570      0.821452
O       9.59369     13.68921      5.03959         0.315478     -0.555331     -1.888921
O       9.73313      1.79644      9.42347         0.202219      0.393079     -1.079979
O       9.66051     13.77106      9.36771         0.199028     -0.420398      0.900405
O       9.93084      5.85316      0.48075        -0.264225     -0.132549     -0.249508
O       9.52681      5.79149     13.79900         0.670203      0.076667     -0.374904
O       9.67162      5.82574      5.03861         0.171358      0.001854     -3.009821
O       9.63300      5.76587      9.43630         0.271201      0.051284     -1.108421
O       9.68189      9.80278      0.58404         0.166376     -0.586881     -0.983839
O       9.68283      9.78984     13.81413         0.329585      0.266830     -0.319346
O       9.61353      9.82973      5.07275        -0.117762     -0.394138     -0.101805
O       9.77674      9.60569      9.48540        -0.234503      0.556957     -0.252706
O       3.79767      1.94236      2.79794         0.792725     -0.238515      0.674546
O       3.85354      1.87190     15.99077         0.016279     -0.010814     -0.280662
O       3.87830     13.67259      2.72946        -0.600526      0.030744     -0.270388
O       3.88111     13.41816     16.16897        -0.454567      1.154918     -0.724794
O      15.54442      1.95796      2.75035        -0.497273     -0.317887     -0.073210
O      15.58483      1.80615     16.05982         0.305641      0.271031     -0.169437
O      15.44554     13.60351      2.73789         0.486183      0.287344     -0.045686
O       0.08830     13.65349     16.02674        -1.741435      0.251111     -0.012826
O       3.87847      1.88773      7.14773        -0.353538      0.078059      0.256237
O       3.78715     13.73782      7.21308         0.851608     -0.460077     -0.133973
O      15.53104      1.99660      7.02673        -0.279442      0.047493      0.554295
O      15.46781     13.71642      7.35202         0.215370     -0.469232     -0.101796
O       3.84316      2.03317     11.57481        -0.529620     -0.017283      0.268286
O       3.87198     13.50150     11.67935        -0.946898      0.516293      0.246685
O      15.52567      1.91460     11.68462         0.738846      0.268813     -0.092265
O      15.58050     13.75904     11.72087        -0.315572     -0.660976     -0.701491
O       3.86066      5.70226      2.69444        -0.566813      0.443930      0.058620
O       3.80931      5.84805     16.16947        -0.085149      0.283754     -0.986742
O      15.49828      5.91466      2.82913         0.097217     -0.218753     -0.325708
O      15.58217      5.81628     16.17955         0.186774      0.093907     -0.709277
O       3.81158      5.95723      7.22263         0.607462     -0.578902     -0.218543
O       0.09113      5.73683      7.21446        -1.415255      0.417402      0.119264
O       3.84635      5.79164     11.38210         0.330341      0.272722      0.550320
O      15.56366      5.90772     11.53918        -0.673192      0.370741      0.492695
O       3.86399      9.77848      2.79213        -0.702663     -0.206735     -0.348385
O       3.81024      9.65443     15.74501         0.384611      0.525730      1.105391
O      15.58463      9.66172      2.90410        -0.803145      0.686424     -0.053478
O      15.46865      9.65694     16.03016         0.486949      0.772164      0.692150
O       3.87756      9.73704      7.30564         0.350974     -0.358171     -0.682113
O       0.08303      9.76805      7.09369        -1.397697     -0.122344      0.350805
O       3.85459      9.70497     11.62728        -0.698243      0.038262      0.292610
O      15.47983      9.71347     11.49752         0.843777      0.080220      0.417050
O       7.73060      2.03527      2.87658         0.395851     -0.398157     -0.581407
O       7.69497      1.94016     15.91941         0.599587     -0.058397      0.716586
O       7.66537     13.65121      2.85234         0.376357     -0.063970     -0.211787
O       7.72053     13.68198     16.01730         0.889800     -0.325739      0.382485
O       7.72682      2.01068      7.13965         0.756663     -0.135093     -0.280838
O       7.73355     13.64936      7.28268        -0.337006     -0.271275     -0.569208
O       7.76781      1.82833     11.48678        -0.184239      0.071417      0.183825
O       7.74671     13.78472     11.66503         0.088895     -0.629678     -0.377907
O       7.81542      5.80574      2.50474         0.326064      0.069244      0.429494
O       7.72737      5.98030     16.02507         0.852235     -0.552253     -0.061759
O       7.70206      5.70067      7.05701         0.993630     -0.125999      0.218539
O       7.81803      5.83851     11.62199        -0.688291      0.581321     -0.260628
O       7.64946      9.63450      2.82845         0.773001      0.295588     -0.043703
O       7.74430      9.68953     15.98527         0.664933     -0.125244     -0.164143
O       7.71957      9.72243      7.27512         0.361928      0.394692     -0.326607
O       7.78685      9.78993     11.58855         0.086910     -0.295509      0.442013
O      11.66866      1.88219      2.75705         0.135701      0.125151      0.054622
O      11.57864      1.92121     16.02459         1.265114      0.265233     -0.211479
O      11.53144     13.52897      2.74953         0.287947      0.466017      0.211605
O      11.67409     13.57650     15.94810         0.657865      0.445032      0.410599
O      11.56644      1.93815      7.00512        -0.051175      0.012109      0.414136
O      11.57787     13.72823      7.25765         0.071483     -0.765972     -0.257184
O      11.73768      1.91270     11.76866        -0.766908      0.707838     -0.410860
O      11.60879     13.73167     11.70203         0.520500     -0.603898     -0.264652
O      11.67223      5.98372      2.87500         0.117681     -0.868300     -0.586870
O      11.72377      5.80215     15.92835        -0.129844     -0.334841     -0.065678
O      11.67701      5.95588      7.27808         0.028157     -0.445378     -0.310315
O      11.66233      5.86573     11.54037         0.635916      0.004230      0.451412
O      11.65192      9.74793      2.80314        -0.591991      0.073179      0.260895
O      11.59879      9.74184     16.15538         0.648278      0.506024     -0.307550
O      11.59516      9.58318      7.03898         0.602593      0.078861      0.637743
O      11.63911      9.81187     11.56200         1.021283      0.191711      0.750357
O       1.76408      3.90807      2.83231         0.730286     -0.295702     -0.568316
O       2.00172      3.83948     15.92259        -0.803338     -0.472883      0.132581
O       1.75712     15.50787      2.75631         0.370443      0.742043     -0.132307
O       2.01355     15.47525     16.03548        -0.099661      0.829795     -0.240849
O      13.53348      3.91474      2.74569         0.219590     -0.278944     -0.141519
O      13.74715      3.83463     16.03425        -0.546279      0.475133     -0.536420
O      13.51835      0.00462      2.68946         0.071194     -0.299287      0.148985
O      13.54887     15.59001     15.99388         0.436702     -0.026271      0.260584
O       1.92851      3.83631      7.12790         0.351395      0.159947      0.166674
O       1.88483      0.00395      7.26986        -0.430168      0.563898      0.233570
O      13.47847      3.90338      7.12290         0.309527     -0.153625      0.651731
O      13.57914      0.03825      7.30956        -0.328993     -0.011323     -0.848578
O       1.83513      3.90569     11.52763        -0.039276      0.218410      0.444703
O       1.89224      0.04376     11.58898         0.463036     -0.214218      0.190519
O      13.71625      3.91257     11.71898        -0.775136      0.637110     -0.112138
O      13.59616      0.05678     11.73943         0.222910     -0.703356     -0.231938
O       1.92267      7.79718      2.74616         0.246573     -0.548837      0.053502
O       1.94539      7.80377     15.89198        -0.629597     -0.736010      0.464180
O      13.56489      7.82091      2.79378         0.182578     -0.243399      0.093350
O      13.66827      7.84643     16.12666        -0.690615     -0.580676      0.161744
O       1.91888      7.80899      7.07040        -0.132404     -0.153332      0.311360
O      13.69835      7.75462      7.32067         0.073651      0.372390     -0.424459
O       1.89459      7.80600     11.87355         0.065778      0.004147     -1.104190
O      13.54189      7.84099     11.59457         0.033788      0.234549     -0.059639
O       1.82914     11.79093      2.82622         0.048245     -0.635904     -0.359741
O       1.85858     11.66920     16.14234        -0.248845     -1.177748     -0.028823
O      13.52406     11.74216      2.92358         0.161908     -0.902002      0.310337
O      13.65269     11.80708     15.95166        -0.073889     -0.632336      0.633623
O       1.94676     11.66160      7.08156        -0.249095      0.378019      0.575633
O      13.51654     11.64163      7.32458        -0.031698     -0.013569     -0.407082
O       1.82657     11.67731     11.55582        -0.089671     -0.965067      0.218780
O      13.62437     11.79378     11.54012        -0.090729     -0.993454      0.016138
O       5.82678      3.90361      2.62196        -0.217823     -0.677457      1.159399
O       5.84038      3.94585     15.95181        -0.146976     -0.853583      0.236157
O       5.82436     15.58357      2.62832        -0.260984     -0.334306      0.353338
O       5.80854     15.53503     16.03926        -0.312840      0.689372      0.007550
O       5.70222      3.90669      7.09750        -0.129007     -0.433843      0.340023
O       5.76121     15.58619      7.27906         0.535529     -0.243296     -0.818628
O       5.94182      3.89332     11.43367        -0.649674      0.161462      0.074666
O       5.63524      0.02402     11.68498         0.467491     -0.309663      0.010122
O       5.73591      7.76122      2.56516        -0.109955     -0.028010      0.652452
O       5.71871      7.81366     16.11229         0.444703     -0.264030     -0.028947
O       5.95375      7.77351      7.14235        -0.692661      0.369836     -0.303302
O       5.77714      7.80031     11.45560         0.050740     -0.515307      0.731530
O       5.68565     11.64923      2.81716         0.914209      0.756888     -0.398142
O       5.78343     11.64345     16.03915         0.357324     -1.038987     -0.172474
O       5.79462     11.61322      7.26827         0.136474      1.291308     -0.528724
O       5.84707     11.66558     11.57612        -0.010858      0.325765      1.066871
O       9.76833      3.86038      2.74280         0.102124      1.200328     -0.292436
O       9.66175      3.83032     15.96778         0.233302      1.090814      0.050345
O       9.58637      0.05636      2.77682         0.689321     -1.094984     -0.201421
O       9.66354      0.01208     16.11141         0.337918     -0.315234     -0.332645
O       9.79686      3.88531      7.20753        -0.120332     -0.084065     -0.255989
O       9.65049      0.00381      6.96213        -0.323445      0.571978      0.207068
O       9.73554      3.90167     11.59602         0.423540     -0.358365     -0.001061
O       9.75136      0.00890     11.62199         0.136126     -0.674834      0.108445
O       9.74414      7.72408      2.79387        -0.479278      0.839667     -0.325554
O       9.80326      7.78517     15.82604        -0.244019      0.056680      0.318173
O       9.53388      7.69696      7.24595         0.865695      0.721172     -0.909084
O       9.70248      7.84338     11.64734         0.353158     -0.448196      0.443488
O       9.48595     11.63422      2.61194         0.473619      0.428083      0.454281
O       9.67939     11.73249     16.11305         0.196585     -0.614583     -0.414089
O       9.62657     11.66211      7.22064         0.738770      0.096690     -0.054703
O       9.68866     11.75581     11.50197        -0.102486     -0.400824      0.273969
