  # total energy = -7864.73837328 
CRSYTAL
PRIMVEC
    15.010000000000000    0.0000000000000000    0.0000000000000000
     0.0000000000000000   15.010000000000000    0.0000000000000000
     0.0000000000000000    0.0000000000000000    16.400000000000000
PRESSURE
16.9008 17.1747 6.20777 0.093906 -0.094128 0.063015
PRIMCOORD
320 1
Pb       3.61114      3.62978      4.04788         1.338129      0.366872      0.131143
Pb       3.63681      3.70901     16.37047         0.217464      0.206586     -0.374313
Pb       3.81111     14.90775      4.13910        -0.253278      0.189733      0.093548
Pb       3.83111     14.98829      0.10280        -0.203716      0.074107     -0.864587
Pb      14.98937      3.80668      4.20601        -0.238132      0.047734     -0.328447
Pb      14.90551      3.67426      0.16664         0.311287      0.245129     -1.482560
Pb      14.89727      0.01172      4.25792         0.371282     -0.106997     -0.681690
Pb       0.05998      0.00463      0.11571        -0.120057     -0.091518     -0.625925
Pb       3.56982      3.70621      8.22199         0.578980      0.238018     -0.088560
Pb       3.72653      0.18812      8.24980        -0.284035     -0.601303     -0.633302
Pb      14.82940      3.70278      8.21948         0.108732      0.189394     -0.226017
Pb      14.92455      0.05051      8.22504         0.308900     -0.408311     -0.679246
Pb       3.75538      3.63953     12.43883        -0.242981      0.268014     -0.361035
Pb       3.65011     14.98822     12.29419         0.545443      0.080689     -0.035202
Pb      14.88939      3.79907     12.33825         0.376668      0.105491      0.851025
Pb      14.96507     15.00513     12.33205         0.340585     -0.317177      0.043770
Pb       3.90469      7.55770      4.20526        -0.406706     -0.833485     -0.506011
Pb       3.76170      7.59467      0.00371         0.193878     -0.383712     -0.755074
Pb       0.17921      7.54415      4.17349        -1.065553     -0.173347     -0.195678
Pb       0.08850      7.41014      0.08558        -0.668888     -0.084216     -1.014228
Pb       3.72047      7.52567      8.37150         0.119202     -0.186633     -0.438913
Pb       0.05149      7.54114      8.24862        -0.326192     -0.047294     -0.014661
Pb       3.65567      7.32978     12.37804         0.125733      0.790025     -0.146587
Pb      14.91353      7.52157     12.29735         0.081805     -0.062227      0.459742
Pb       3.90650     11.05632      4.12109        -0.290855      0.698806      0.071948
Pb       3.76763     11.25826      0.19752         0.254187     -0.067049     -1.133049
Pb       0.09781     11.15445      4.18929        -0.415998      0.350795     -0.925952
Pb       0.09636     11.21918      0.15288        -0.427678      0.342068     -0.725734
Pb       3.70580     11.30812      8.24718         0.143815     -0.314051     -0.351920
Pb       0.06414     11.28284      8.16848        -0.317320      0.152729      0.360941
Pb       3.72475     11.13803     12.33461         0.089588      0.186202     -0.050465
Pb       0.00939     11.22295     12.30208        -0.559439      0.206358     -0.244762
Pb       7.40797      3.88901      4.07727        -0.171789     -1.021742      0.055258
Pb       7.44396      3.69487      0.10486        -0.295646     -0.334828     -0.798837
Pb       7.52736     14.92219      4.07559        -0.336004      0.341393      0.428978
Pb       7.59375     14.86299      0.04493        -0.192941      0.785670     -0.335991
Pb       7.41925      3.79705      8.30355         0.032936      0.196200     -0.766393
Pb       7.38487      0.02480      8.27104        -0.171395     -0.132693     -0.291078
Pb       7.37272      3.75814     12.41019         0.023265      0.032041     -0.324026
Pb       7.41452      0.06446     12.21797        -0.014933     -0.560178      0.345657
Pb       7.66079      7.41639      4.15257        -0.349020      0.605044      0.122529
Pb       7.50915      7.39557     16.38068        -0.514973      0.616695     -0.254139
Pb       7.60151      7.41136      8.20990        -0.579192     -0.318062      0.320122
Pb       7.45316      7.59032     12.22606        -0.193227     -0.485605      0.276667
Pb       7.54839     11.08131      4.16401        -0.110868      0.429690     -0.079556
Pb       7.46799     11.25516     16.39739        -0.288042     -0.367198     -0.096021
Pb       7.59007     11.27616      8.20991        -0.146510      0.327242     -0.309974
Pb       7.48763     11.33788     12.24675         0.006027      0.038999      0.021974
Pb      11.29410      3.76555      4.19538        -0.529966      0.257089     -0.393276
Pb      11.24153      3.76655      0.10893         0.148568     -0.389110     -0.611348
Pb      11.21423     14.89415      4.08523         0.192399      0.543314     -0.539822
Pb      11.38092     14.97482      0.00924        -0.994202      0.420564      0.201934
Pb      11.18474      3.67090      8.39507        -0.262308      0.577208     -0.922270
Pb      11.18811     15.00971      8.22769         0.455374     -0.023138     -0.262846
Pb      11.12816      3.74909     12.35035        -0.061350      0.149774     -0.277154
Pb      11.16867     14.84947     12.41173        -0.288738      0.368803     -0.641489
Pb      11.34346      7.50629      4.13357         0.022389     -0.106163     -0.310323
Pb      11.22558      7.40665      0.00443         0.731341      0.413324     -0.001970
Pb      11.31050      7.46384      8.25078        -0.128171      0.372237      0.224796
Pb      11.01771      7.50473     12.34082         1.131623      0.074004     -0.246639
Pb      11.21076     11.18169      4.11375         0.191721     -0.063877     -0.275943
Pb      11.18296     11.32330      0.03069         0.288502     -0.468292     -0.332915
Pb      11.33640     11.40862      8.21459        -0.180103     -0.914033      0.068810
Pb      11.13192     11.22454     12.34800         0.909507     -0.354457     -0.314747
Ti       1.88634      1.89031      2.07008        -0.604536     -0.838480      0.056873
Ti       1.88585      1.80536     14.37837        -0.230538      1.070834      0.148702
Ti       1.87214     13.15359      2.10873        -1.069988     -0.396409      0.220172
Ti       1.89716     13.10125     14.36117        -0.294937     -0.125413     -0.302718
Ti      13.10416      1.90182      2.11084         0.009923     -1.134482     -0.314041
Ti      13.07504      1.80443     14.39583         0.737825      1.256303      2.172400
Ti      13.16505     13.11148      1.95270         0.070081     -0.348247      1.440903
Ti      13.11874     13.04611     14.36430         0.563996     -0.423201     -0.268722
Ti       1.74714      1.92992      6.16342         1.285999     -1.595278     -0.247955
Ti       1.94614     13.10413      6.19077        -0.357844      1.412948      0.202432
Ti      13.02894      1.92876      6.14553         0.612461     -0.525446     -0.435066
Ti      13.19122     13.09138      6.07221        -0.199585      1.007279      0.640038
Ti       1.76273      1.93347     10.29950         0.473739     -0.125029      0.346859
Ti       1.87828     13.18934     10.24882        -0.889742     -0.591560     -0.650864
Ti      13.03355      1.79783     10.40684        -0.580105      1.188804     -0.895587
Ti      13.07586     13.13718     10.23004         0.901301     -2.004430      0.383099
Ti       1.84149      5.58935      2.02694         0.964519      0.753628     -0.804722
Ti       1.82873      5.63265     14.37691        -0.712627     -0.998174      0.546130
Ti      13.10500      5.64081      2.06280        -0.157765      0.530645      0.205221
Ti      13.09195      5.62271     14.32961         0.854841     -0.132775     -0.001716
Ti       1.88122      5.62225      6.17718        -0.211926      0.173176     -0.477157
Ti      13.15169      5.74526      6.28309        -0.503751     -0.713574     -0.194321
Ti       1.76215      5.62168     10.32893         0.774323     -0.309565      0.502307
Ti      13.08404      5.59570     10.29089        -0.985065      0.623901      0.541635
Ti       1.81412      9.33340      1.97801         0.181502     -0.138435      1.571151
Ti       1.88671      9.34785     14.35515        -0.072736     -0.447755     -0.211310
Ti      13.08049      9.35280      2.06138        -0.363416      0.570041     -0.068486
Ti      13.12230      9.33061     14.44043         0.152939      0.272426     -0.598861
Ti       1.94517      9.36122      6.17144        -0.498074      0.134245      0.305532
Ti      13.14545      9.44151      6.20026         0.129118     -0.664306     -0.362828
Ti       1.82886      9.41760     10.21924         1.151528     -0.652522      0.179462
Ti      13.16299      9.33741     10.29130        -2.246845      1.457446     -0.708951
Ti       5.62853      1.76214      2.06630        -1.148069      2.623974     -0.160090
Ti       5.63499      1.87507     14.42447        -0.050550     -1.168187     -0.138294
Ti       5.64383     13.04989      2.10657         0.235476     -0.666614      0.358477
Ti       5.61225     13.11087     14.34918        -0.181341      0.459337     -0.249742
Ti       5.62362      1.89189      6.09986         0.118630     -0.202461     -0.788428
Ti       5.61981     13.08538      6.27608         0.857109      0.621503     -0.569330
Ti       5.57628      1.84710     10.34550        -0.547722      0.452009     -0.234691
Ti       5.50641     13.02571     10.20042         1.362761      1.881846      0.046457
Ti       5.57073      5.65595      1.91920        -0.864032     -1.890964      0.745422
Ti       5.62557      5.64477     14.34341        -0.807953     -0.481597      0.316358
Ti       5.55376      5.60009      6.08580         0.453635     -0.719663      0.063942
Ti       5.48782      5.62806     10.26608         1.018118     -0.939200      0.575614
Ti       5.61411      9.25090      2.11235         1.196649      1.424752     -1.241770
Ti       5.67536      9.35996     14.30329        -0.728399      0.601495      0.217391
Ti       5.70117      9.25796      6.31965        -0.500269      0.714150     -0.098609
Ti       5.66837      9.37244     10.23734        -0.450544     -0.417732     -0.383114
Ti       9.30822      1.90684      2.04276         0.845443     -0.595882      0.944453
Ti       9.39187      1.92545     14.34150        -0.529828     -1.177429      0.151693
Ti       9.38367     13.15043      2.09350         0.256796     -0.706492     -0.579253
Ti       9.33368     13.13196     14.34655        -0.143033     -0.270751     -0.200201
Ti       9.31973      1.82479      6.19952        -0.472881      3.116826     -1.492862
Ti       9.43407     13.22685      6.18219        -1.253597     -1.722809     -0.451431
Ti       9.27053      1.86025     10.22585         0.382598     -0.157476      2.347383
Ti       9.34705     13.14460     10.21289        -0.542842     -0.472582     -0.034048
Ti       9.29971      5.60129      1.97529         1.277975      0.143577      0.630856
Ti       9.33537      5.60603     14.42277         0.761357     -0.534072     -1.181552
Ti       9.39216      5.61922      6.17576        -0.195375     -1.275922      0.783803
Ti       9.27995      5.64915     10.31760         0.553931     -0.798484     -0.585310
Ti       9.35657      9.36015      1.91155        -0.541563      0.076117      0.908820
Ti       9.37349      9.34342     14.40441         0.197791      1.046279     -0.628335
Ti       9.39646      9.37376      6.34261         0.641003      0.511089     -1.018532
Ti       9.34862      9.39865     10.30062         1.436357      0.177004      0.163465
O       1.93107      1.77644      0.20686         0.187318      0.607237      0.764370
O       1.89102      1.77131     12.53894        -0.125838     -0.006421     -0.217851
O       1.69239     13.06324      0.24777         0.760525     -0.014708     -0.032411
O       1.90168     13.08636     12.42410        -0.310566      0.168773      1.540235
O      13.08778      1.90810      0.21188         0.437250     -0.163138      0.718506
O      12.97618      1.78984     12.65602         0.297368     -0.153586     -2.318619
O      13.21773     13.15068      0.12758        -0.337940     -0.466334      0.308988
O      13.06751     13.08571     12.49064         0.468646      0.484228      0.513763
O       1.75870      1.89214      4.29772         0.033920      0.078725      0.501667
O       1.84439     13.19084      4.34336         0.297544     -0.156837      0.162213
O      13.13443      1.91718      4.24481        -0.241113     -0.269820      0.779995
O      13.17690     13.05820      4.26753        -0.370248      0.539809      0.359717
O       1.68720      1.90901      8.45261         0.142836      0.407587      0.340852
O       1.97189     13.13813      8.36886        -0.089774     -0.116294      0.808116
O      13.14791      1.91696      8.49348        -0.118722     -0.274477      0.837096
O      13.08647     13.03233      8.37894        -0.104331      0.533432      0.310118
O       1.75321      5.58021      0.13449         0.428034      0.146127      1.618004
O       1.81308      5.68657     12.53882        -0.218310      0.062444     -0.457762
O      13.14827      5.64085      0.22789        -0.247637     -0.155931      0.956194
O      13.15311      5.73703     12.46728        -0.079028     -0.089842      0.765773
O       1.84789      5.43478      4.31905         0.265494      1.078720      0.338280
O      12.96241      5.61908      4.48090         0.539783      0.173647     -1.184206
O       1.81602      5.56365      8.51630        -0.067449      0.095850     -0.692841
O      13.10472      5.62050      8.42595         0.035328     -0.387856      0.516637
O       1.84151      9.39493      0.17504         0.123910     -0.275045      0.201922
O       2.00438      9.44521     12.48620        -0.634882     -0.359182     -0.000865
O      12.95585      9.35567      0.22267         0.660949      0.172416      0.535837
O      13.10225      9.42346     12.57182         0.245901     -0.690986     -0.032926
O       1.83634      9.30847      4.30518         0.574838      0.284013      0.365913
O      13.13007      9.34028      4.33249        -0.488566      0.204271      0.506591
O       1.82068      9.28432      8.33552        -0.112506      0.287999      0.891632
O      13.15369      9.43440      8.40626         0.192982      0.309172      0.747847
O       5.55971      1.89717      0.16133        -0.076545     -0.058762      0.972635
O       5.61445      1.75989     12.52957        -0.453599      0.023867      0.379778
O       5.59494     12.99643      0.29771         0.066040      0.334826     -0.059818
O       5.63555     13.13436     12.52172        -0.022988     -0.093932      0.238968
O       5.68705      1.87343      4.18414        -0.385036     -0.558444      1.932358
O       5.65741     13.26305      4.41041        -0.636214     -0.490063     -0.880831
O       5.78368      1.94858      8.48979        -0.617642     -0.061393      0.037518
O       5.39130     13.12205      8.36143         0.872883     -0.113442      0.526926
O       5.65170      5.65214      0.08001        -0.309824     -0.245275      0.852887
O       5.63787      5.66265     12.52352         0.020543     -0.003127     -0.264078
O       5.53953      5.68192      4.21452         0.242866      0.020691      0.953669
O       5.50856      5.41810      8.47289         0.021493      0.261413      0.304686
O       5.64462      9.44341      0.24978        -0.358298     -0.575134      0.592955
O       5.60821      9.41957     12.47121         0.064402     -0.171924      0.297356
O       5.76639      9.32555      4.30738        -0.897252     -0.287329      1.233060
O       5.72591      9.41358      8.36535        -0.088582     -0.230709      0.843344
O       9.36092      1.78675      0.25271        -0.320330      0.307860     -0.226653
O       9.41045      1.89695     12.51828         0.090102      0.098804      0.295882
O       9.41491     13.24322      0.17804        -0.242626     -0.384037      0.481769
O       9.31057     13.00797     12.44810         0.205375      0.520781      1.107556
O       9.29822      1.84122      4.32439         0.435582     -0.119680      0.427478
O       9.39681     13.15603      4.21462         0.334493      0.135158      1.149398
O       9.18869      1.83585      8.46864         0.544239     -0.361894     -1.388683
O       9.41071     13.11076      8.35480         0.234333      0.480602      0.083747
O       9.33904      5.56655      0.12194         0.199434      0.193438      0.682056
O       9.26356      5.64519     12.49694         0.512852     -0.354158      0.553227
O       9.22301      5.53675      4.30261         0.586693      0.493163      0.789622
O       9.46834      5.61727      8.43044        -0.341512      0.325624      0.491055
O       9.27989      9.27192      0.12534         0.672205      0.181302      0.201456
O       9.38865      9.39202     12.48066        -0.209574     -0.274595      1.354561
O       9.16479      9.35839      4.45412         0.856378     -0.014402      0.107659
O       9.35173      9.32959      8.48707        -0.298701      0.295623     -1.079860
O       3.71357      1.78299      2.48514         0.354645     -0.691766     -0.546433
O       3.74496      2.08329     14.60173         0.030140      0.098794      0.004108
O       3.70516     13.09595      2.23496         1.221935      0.550459      0.638798
O       3.78107     12.84756     14.66949        -0.751429      0.120267      0.103054
O      15.00350      2.12817      2.24681         0.351967     -0.053815      0.012084
O       0.08979      1.65105     14.66077        -2.133056     -0.366836     -0.212050
O      15.00192     12.88905      2.34888         0.354655     -0.183941     -0.328149
O       0.04866     13.31779     14.57786        -0.317799      0.049208     -0.528017
O       3.71687      1.91460      6.48795         0.550136     -0.306833     -0.172149
O       3.76849     13.21787      6.43855        -0.564923      0.547984     -0.532452
O      14.94275      1.83422      6.36853        -0.318562      0.813182      0.295922
O       0.01574     13.05650      6.51045         0.204503     -0.231758     -0.439367
O       3.69087      1.78965     10.47937         0.033432     -0.688618     -0.161181
O       3.72217     13.20191     10.54663        -0.179273      0.127732      0.064670
O      14.92643      2.18292     10.68575        -0.001427     -1.319688     -0.585736
O       0.00101     13.00407     10.35885        -0.398905     -0.169988      0.500402
O       3.68668      5.88882      2.14364         0.868154      0.502434      0.257951
O       3.72194      5.54454     14.50062         0.851171     -0.503177      0.274334
O       0.01856      5.47556      2.24347        -1.753228     -0.702981      0.594370
O      14.97224      5.89706     14.63221        -0.281171      0.149651     -0.358160
O       3.70654      5.76145      6.55528        -0.071937     -0.384077     -0.443449
O      14.98060      5.46427      6.28024         0.651235      0.400050      0.721566
O       3.65639      5.78198     10.60753         0.854546     -0.019598     -0.350262
O      14.94520      5.37059     10.54071         0.397127      0.157500     -0.185797
O       3.72391      8.95627      2.36650        -0.100461      1.134055     -0.447669
O       3.78686      9.48621     14.60093        -0.022014      0.044484      0.212533
O      14.90778      9.59498      2.34609         1.299909     -0.191718     -0.456339
O      15.00450      9.04684     14.50690         0.266487      0.423689      0.295010
O       3.78092      9.16656      6.56941         0.150165      0.209322     -0.865102
O       0.00675      9.61347      6.24813         0.399427      0.027172      0.666879
O       3.82323      9.18476     10.39534        -1.116818      0.247483     -0.005087
O      14.97841      9.50418     10.46720         1.407993      0.364687      0.381458
O       7.39674      2.05745      2.25295         1.751215      0.324353     -0.187551
O       7.52809      1.79201     14.56457        -0.254259     -0.779493      0.318127
O       7.52083     12.87200      2.26195        -0.820882      0.095331      0.094816
O       7.46918     13.31455     14.70798         0.150576     -0.064223     -0.310176
O       7.47848      2.03800      6.38451         0.155762     -0.032030      0.145667
O       7.52728     13.04931      6.39946         0.035188      0.110472      0.423141
O       7.44285      1.87038     10.72778         1.010210      0.596379     -0.710569
O       7.44035     13.04998     10.35394         0.092765     -0.480363      0.168547
O       7.48503      5.26638      2.07742        -0.751243      0.527441      0.419766
O       7.52012      5.70043     14.62240        -0.277382      0.343805     -0.034885
O       7.45290      5.51455      6.50002         0.539741     -0.161748     -0.297260
O       7.47550      5.39202     10.49388        -0.629867     -0.259025     -0.200167
O       7.50396      9.70961      2.22019         0.482285     -0.791871      0.185445
O       7.52365      9.13110     14.66625        -0.158344     -0.138544     -0.454482
O       7.48612      9.56360      6.50865         0.360599     -0.181005     -0.054804
O       7.53843      9.47292     10.67279        -1.182818      0.579567     -0.487405
O      11.25114      1.65344      2.20946        -0.572655     -0.356259      0.492876
O      11.23787      2.16041     14.77230         0.660182     -0.812035     -0.595487
O      11.24963     13.39440      2.16389         0.802878      0.152835      0.438239
O      11.19978     12.77931     14.57063         0.649989      0.800007     -0.221937
O      11.26670      1.85451      6.48412        -1.304985     -0.779327      0.215721
O      11.27245     13.32377      6.33778        -0.042717      0.076982      0.129513
O      11.13373      1.64177     10.59946         1.716781      0.062947     -0.580321
O      11.23707     13.22237     10.43252         0.159702      0.404407      0.083835
O      11.21345      5.81852      2.41972        -0.015580     -0.022075     -0.580748
O      11.28145      5.27391     14.64135        -0.654388      0.701798     -0.220981
O      11.28271      5.92270      6.46656        -1.531553     -0.362320     -0.421635
O      11.21296      5.81981     10.61609         0.352359     -0.056505     -0.440769
O      11.17487      9.07258      2.27431         0.001911      0.171055      0.437305
O      11.22385      9.62669     14.59283        -0.262467     -0.004769      0.117032
O      11.28026      9.25141      6.44741        -1.450842     -0.196944     -0.108497
O      11.19958      9.15895     10.56019         0.577959     -0.169505     -0.171848
O       2.13113      3.77049      2.28862        -0.563442     -0.459183     -0.571816
O       1.67989      3.77466     14.61592         0.203318     -0.756752     -0.009413
O       1.79858     15.00273      2.22426        -0.436401     -0.098874      0.376516
O       2.20349     14.97933     14.60991        -0.063961     -1.171490      0.013700
O      12.86392      3.75778      2.28848         0.384507      0.416691      0.176214
O      13.38503      3.77296     14.59085         0.109573     -0.871527     -0.122640
O      13.46053     14.94618      2.27786        -0.532354      1.093830      0.055159
O      12.94940     14.94443     14.66217        -0.127975      0.376807     -0.583992
O       1.85617      3.76429      6.39974         0.196576     -0.061896      0.550567
O       1.86946      0.07980      6.55623        -0.214577     -1.019590     -0.555751
O      12.99545      3.76063      6.39601         0.311291      0.213988      0.251064
O      13.22932     14.99753      6.36353        -0.193659      0.141203     -0.010738
O       2.12213      3.71263     10.64742        -0.790859      1.094787     -0.400274
O       1.69183      0.01091     10.46647        -0.076951      0.531865      0.197550
O      12.96641      3.73742     10.67995        -0.733007     -0.141133     -0.427657
O      13.24602     14.98685     10.44758         0.444621      0.401065      0.418137
O       1.54500      7.48934      2.31249         0.376996     -0.096151     -0.241722
O       2.07807      7.46766     14.75955        -0.103299      0.976828     -0.382568
O      13.28186      7.51756      2.44692        -0.001377     -0.902512     -0.306212
O      12.88073      7.48373     14.72801        -0.433271     -0.095606     -0.420306
O       1.71537      7.52470      6.36506        -0.267992     -1.003197      0.049711
O      13.30990      7.60978      6.63198         0.046133     -1.016153     -0.649870
O       1.72272      7.53349     10.51258        -0.263666     -0.642031     -0.094803
O      13.38998      7.51320     10.42230        -0.302800     -1.117201      0.012739
O       1.98681     11.14528      2.26888         0.444671      0.561547      0.288373
O       1.74636     11.16370     14.60047        -0.529106      1.314521      0.087090
O      12.90413     11.27851      2.39242        -0.508694     -0.670867     -0.616570
O      13.32686     11.23515     14.57614         0.569906     -0.092046      0.438126
O       2.05555     11.22734      6.43474        -0.103827      0.509594     -0.231440
O      12.87743     11.28846      6.37110         0.335832     -0.082090      0.039210
O       1.97733     11.24916     10.37911         0.230230     -0.348771      0.177778
O      12.98288     11.22165     10.56215        -0.015652      0.552149     -0.237927
O       5.36762      3.78236      2.25686         0.000314      0.294880     -0.284297
O       5.74157      3.69665     14.46370         0.237544      1.768030      0.328719
O       5.75885     14.98718      2.27496        -0.220010     -1.780767     -0.088664
O       5.38301      0.00594     14.70734         0.190724     -1.015765     -0.145444
O       5.57776      3.77557      6.19327        -0.438737     -0.556895      0.591102
O       5.82226      0.02521      6.49679        -0.915893      0.549246     -0.215218
O       5.49733      3.71046     10.66873        -0.108463      0.635694     -0.075140
O       5.67343     14.95905     10.45976         0.049742      0.073914     -0.054108
O       5.88982      7.47125      2.36542         0.444116     -0.647000     -0.399261
O       5.52237      7.48391     14.60602        -0.057127      0.449651      0.056509
O       5.72607      7.36792      6.59742         0.080203      2.296006     -0.408659
O       5.82464      7.48379     10.49618        -0.155950     -0.258285     -0.331320
O       5.45629     11.14937      2.36597        -0.669831      0.950288      0.310129
O       5.80367     11.23153     14.58179         0.482685      0.030090     -0.024618
O       5.47579     11.24778      6.35616        -0.052188     -1.067124     -0.076796
O       5.52264     11.23014     10.43415        -0.045921     -0.500773      0.338147
O       9.53524      3.76783      2.31467         0.164740     -1.040154     -0.162918
O       9.25071      3.72925     14.59522        -0.359753      0.618440      0.075638
O       9.10121     14.96982      2.26718         0.001850      1.136451      0.184499
O       9.59540     14.96544     14.47371         0.189271      0.596132      0.262888
O       9.51667      3.75009      6.47763         0.261444      0.627250     -0.046629
O       9.30672      0.07180      6.46343        -0.096297     -1.749184      0.289737
O       9.65031      3.68705     10.28626        -0.619718      0.644063      1.005244
O       9.26714     14.92398     10.53347        -0.174659      1.395163      0.088154
O       9.02309      7.41985      2.27974         0.250667      1.158221     -0.216573
O       9.71629      7.44398     14.61095        -0.659542      0.453536     -0.265500
O       9.11090      7.49739      6.48154         0.714165      0.354088     -0.533552
O       9.04462      7.46800     10.47740         0.764174      0.608032      0.095350
O       9.69705     11.22991      2.20288        -0.385163     -0.278785      0.083765
O       9.09184     11.24707     14.67375         0.316163     -0.494037     -0.396936
O       9.45845     11.34743      6.43740         0.305384     -1.211543     -0.055816
O       9.51982     11.28660     10.53322        -0.441282     -0.969756     -0.479323
