  # total energy = -7879.44433033 
CRSYTAL
PRIMVEC
    15.6000000000000000    0.0000000000000000    0.0000000000000000
     0.0000000000000000   15.6000000000000000    0.0000000000000000
     0.0000000000000000    0.0000000000000000    17.640000000000000
PRESSURE
-4.49151 -4.27749 -4.95526 -0.241086 0.735696 -0.025686
PRIMCOORD
320 1
Pb       3.81547      3.90193      4.33225         0.345509      0.132335      0.098087
Pb       3.88974      3.87155     17.54826         0.119901      0.141440      0.455774
Pb       3.91507      0.10067      4.33120         0.020250     -0.529002      0.401879
Pb       3.87035     15.52928     17.56629         0.599198     -0.086496     -0.560203
Pb      15.57060      3.83698      4.39667        -0.106196     -0.192985     -0.683874
Pb      15.52417      3.92618     17.57443        -0.106515      0.130107     -0.011968
Pb      15.59619      0.05706      4.43242        -0.295333     -0.274915     -0.301316
Pb      15.59463     15.53758     17.51457        -0.050976      0.454212      0.398057
Pb       3.92705      3.83828      8.75130         0.140616     -0.015455      0.148940
Pb       3.93473     15.51777      8.72273        -0.313310      0.278492      0.216454
Pb      15.54177      3.90818      8.77303         0.532028     -0.586267      0.113149
Pb       0.02530     15.40076      8.74654        -0.163399      1.166488     -0.022630
Pb       3.86337      3.84605     13.27031         0.182494     -0.256411     -0.109138
Pb       3.78981     15.52262     13.14274         0.430389     -0.052715      0.224349
Pb      15.50870      3.86658     13.02996         0.050022     -0.174480      0.718736
Pb      15.56116     15.56929     13.12383        -0.167506      0.364558     -0.271917
Pb       3.86995      7.74187      4.49979         0.006052      0.245584     -0.544391
Pb       3.83760      7.69915      0.00569        -0.067058      0.062650     -0.224724
Pb      15.54941      7.90754      4.32049         0.511747     -0.282530      0.126965
Pb      15.59344      7.73314     17.57873        -0.055724     -0.127350      0.558638
Pb       3.95509      7.74188      8.68542         0.309350      0.315230      0.163864
Pb      15.52489      7.67391      8.79349         0.480282      0.377312      0.053056
Pb       3.80255      7.64501     13.16335         1.233104      0.522963      0.541985
Pb       0.05661      7.75706     13.20729        -0.661544      0.212449      0.254945
Pb       3.89008     11.73920      4.38657        -0.745303      0.048365     -0.998487
Pb       3.84566     11.70966      0.05105         0.271496     -0.102245     -0.118924
Pb      15.54760     11.73787      4.38584         0.757866      0.307082     -0.406145
Pb      15.56060     11.73021     17.54201        -0.155751     -0.414409      0.717343
Pb       3.82174     11.58966      8.76185         0.334939     -0.142194      0.100388
Pb      15.55580     11.73077      8.74652         0.276157     -0.693800     -0.314294
Pb       3.85223     11.72097     13.16213         0.228742     -0.033248      0.134984
Pb      15.51031     11.65939     13.07522         0.812531     -0.403164      0.159988
Pb       7.68038      3.94455      4.34491        -0.021718     -0.310688      0.077209
Pb       7.72147      3.88303     17.54802         0.251986     -0.400177      0.161970
Pb       7.77020      0.15215      4.34635         0.493648     -0.035551      0.137031
Pb       7.84567      0.06611     17.48990        -0.408958     -0.371704      0.070152
Pb       7.69270      3.80369      8.86945         0.151366     -0.118280     -0.170748
Pb       7.75605     15.50849      8.88161        -0.069359      0.267738     -0.508631
Pb       7.74845      3.91902     13.19318         0.645784      0.012021     -0.176300
Pb       7.76398     15.55627     13.18600        -0.157837     -0.077065      0.115805
Pb       7.76858      7.99826      4.36167         0.268233     -0.671023      0.994632
Pb       7.73353      7.81954      0.08884        -0.116124      0.232230     -0.604469
Pb       7.74841      7.76891      8.73739        -0.328599      0.334995      0.380052
Pb       7.59083      7.79397     13.17370         0.392390     -0.222278     -0.401073
Pb       7.85270     11.80777      4.37012         0.345523     -0.197446      0.005149
Pb       7.74956     11.62435     17.63014         0.134214      0.493007     -0.467186
Pb       7.74281     11.69341      8.76889         0.287022     -0.484035      0.377404
Pb       7.86478     11.59134     13.23193        -0.457430      0.284939     -0.633682
Pb      11.61700      3.93657      4.37842         0.742570     -0.047342      0.151792
Pb      11.74147      3.87855     17.58437        -0.329337      0.141604     -0.085816
Pb      11.72300      0.17101      4.44550        -0.120560     -0.553142     -0.025635
Pb      11.63878     15.56724     17.55627        -0.273539      0.069419      0.153746
Pb      11.66332      3.83144      8.75563        -0.074311      0.062026      0.440527
Pb      11.76850      0.01561      8.88300         0.132299     -0.338658     -0.914914
Pb      11.56005      3.84342     13.19515        -0.205184     -0.235804     -0.253442
Pb      11.65893     15.46023     13.09288         0.375564      0.474183      0.283178
Pb      11.59899      7.83159      4.40902         0.167449     -0.053065     -0.045850
Pb      11.47190      7.82202     17.61884         0.788753     -0.012356     -0.155967
Pb      11.64997      7.76844      8.69699        -0.138510      0.155673      0.576247
Pb      11.56770      7.74588     13.17572         0.351510     -0.005122      0.091262
Pb      11.72206     11.86921      4.27848        -0.464920     -0.331386      0.846349
Pb      11.80546     11.65700     17.52798        -0.482870      0.238706      0.206454
Pb      11.73774     11.55009      8.70510        -0.320276      0.375321     -0.221232
Pb      11.67979     11.62170     13.08358        -0.295894      0.102408      0.011400
Ti       2.01072      1.88342      2.34618        -1.343177      1.239617     -0.871199
Ti       1.95869      1.89085     15.57843        -0.063679      0.378558     -0.720563
Ti       1.91578     13.80817      2.26465         0.084543     -2.065014      0.510097
Ti       1.96471     13.53512     15.71691         1.144995      0.771938     -2.306894
Ti      13.64395      1.89233      2.38348         0.688727     -0.039418     -0.243519
Ti      13.65793      1.95797     15.64024        -0.854929      0.394192     -1.869993
Ti      13.57577     13.57762      2.31904         0.810148      1.692049      1.253311
Ti      13.65778     13.70390     15.52721        -0.270817     -0.359574     -0.416361
Ti       1.96379      2.01219      6.81165        -0.645642     -1.560972     -0.091410
Ti       1.96493     13.63285      6.87296        -0.004466     -0.009320     -2.295123
Ti      13.66532      1.89552      6.77108         0.736759     -1.412793     -0.455375
Ti      13.68177     13.57697      6.77747        -1.296074      1.033754     -0.499458
Ti       1.99543      1.92474     11.19796         0.202492     -0.678762     -1.794472
Ti       1.87912     13.60364     11.15691         1.298127     -0.522629     -1.036048
Ti      13.68431      1.93074     11.10335        -0.404053     -0.457331     -0.385176
Ti      13.66743     13.61664     11.13518        -0.950618      0.715799     -0.356660
Ti       1.97392      5.88636      2.39844         0.575161      0.157049     -0.180926
Ti       1.95972      5.76066     15.55750        -0.447829      0.904561     -0.983364
Ti      13.68787      5.81427      2.40936         0.782941     -0.364151      0.041126
Ti      13.54405      5.92058     15.60504         0.250978     -0.018036      1.359046
Ti       1.97026      5.81828      6.71731         0.556650      0.205304     -0.007840
Ti      13.65041      5.73466      6.94502        -0.102578      0.127001     -2.754160
Ti       1.99254      5.72960     11.26888         0.123983      0.283660     -0.736315
Ti      13.65903      5.82561     11.15921        -0.541406      0.296903     -0.386951
Ti       1.95972      9.73834      2.39333         0.786508      1.089039     -0.669695
Ti       1.91324      9.68483     15.63186        -0.080860     -0.073104     -0.418128
Ti      13.62820      9.72458      2.41928         0.920789      0.628531     -0.947891
Ti      13.63404      9.72121     15.67495        -0.512272     -0.905636      0.150875
Ti       1.98845      9.64143      6.78940        -0.240423      0.570918     -0.007044
Ti      13.70771      9.64123      6.77515         0.061448      0.778571      0.124931
Ti       2.00025      9.57425     11.19740         0.276265      1.841698     -1.515033
Ti      13.66416      9.71269     11.08002        -0.258430     -0.821261     -0.447219
Ti       5.77582      1.97243      2.34886         0.650843      0.738261     -0.355899
Ti       5.78968      1.98474     15.52930         0.848581     -0.740758      0.663708
Ti       5.91590     13.62381      2.35040        -1.452044     -0.069834     -2.002953
Ti       5.91991     13.59893     15.64120         0.362745      0.514082      0.006678
Ti       5.84717      1.92112      6.75036         0.520518     -0.386373      0.308128
Ti       5.90316     13.62324      6.75354         0.048127      0.710944      0.281897
Ti       5.89748      2.02246     11.27100        -0.638223     -0.465971     -0.260463
Ti       5.76621     13.74235     11.19123         0.855921     -1.171640     -0.419618
Ti       5.93960      5.88493      2.37979        -1.448982     -0.726312     -0.340481
Ti       5.86748      5.87053     15.63593         0.164453     -0.033763     -0.545758
Ti       5.85574      5.83892      6.76081         0.416853     -0.195290     -0.390595
Ti       5.83785      5.79785     11.12163         1.049028      0.744401     -0.109090
Ti       5.87498      9.74907      2.45829        -0.568706      0.140588      0.206278
Ti       5.82392      9.72183     15.57749         0.445982      0.034539     -0.641368
Ti       5.90343      9.81443      6.73522        -0.104771     -1.350782     -0.266204
Ti       5.85686      9.78700     11.20157         0.350597     -0.511753     -1.769235
Ti       9.80810      2.13005      2.35824        -0.487433     -2.097524     -1.070862
Ti       9.77122      1.95451     15.61619        -1.707164      0.243076     -1.346061
Ti       9.72759     13.72523      2.34035         0.921091     -0.195883     -0.948879
Ti       9.82225     13.61247     15.56194        -1.430144     -0.598771      0.608523
Ti       9.78150      1.93657      6.91916        -0.915540     -1.094883     -1.928579
Ti       9.84149     13.62828      6.88471         0.169184      0.074408     -0.854151
Ti       9.80193      1.80625     11.20618        -0.540289      1.735952      1.450177
Ti       9.66940     13.63862     11.11592         0.444619     -0.736180     -1.380140
Ti       9.78491      5.87139      2.31021        -0.014024     -0.121478     -0.235981
Ti       9.70530      5.80071     15.59962         0.528892     -0.201262     -1.050235
Ti       9.70512      5.78896      6.87367        -0.351607      0.035103      0.275326
Ti       9.74754      5.79740     11.17166        -0.586338     -0.182568     -0.655694
Ti       9.74449      9.77023      2.36490         0.312733      0.103334     -0.244828
Ti       9.69764      9.72590     15.51082         0.421578     -0.001784      0.828478
Ti       9.76089      9.68251      6.79898         0.010333      1.353532     -0.368118
Ti       9.77443      9.69349     11.14018        -0.530497     -0.249821     -0.386702
O       1.92460      1.95476      0.54818         0.212789     -0.358080      0.320240
O       1.97968      2.04017     13.78872        -0.194957     -0.847606      0.944620
O       1.85204     13.66732      0.46038         0.384196      0.343963      0.045652
O       2.25701     13.53883     13.87708        -1.190759      0.304036      1.098142
O      13.69718      1.97055      0.60875        -0.136104     -0.037610     -0.333765
O      13.51429      1.94668     13.83951         0.612986     -0.001872      1.212793
O      13.71340     13.50808      0.59539        -0.101068      0.210789     -1.183496
O      13.53861     13.66897     13.75264         0.624109      0.104064      0.179582
O       1.99031      1.94109      5.04103         0.085485     -0.125075      0.249600
O       2.00184     13.64463      5.04469        -0.060196     -0.021482      1.479057
O      13.60042      1.77012      4.96715         0.206252      0.645661      0.470836
O      13.62219     13.65536      5.02314         0.036195     -0.328915     -0.142674
O       2.02658      1.83181      9.41273         0.038954      0.680934      1.210054
O       1.83970     13.56021      9.34792         0.037760     -0.065532      1.062046
O      13.70528      1.85774      9.34862        -0.205750      0.339943      0.118369
O      13.76706     13.62307      9.36280        -0.291761     -0.280575      0.972159
O       2.03692      5.87414      0.60745        -0.046671     -0.000104      0.701887
O       2.02027      5.80849     13.71577        -0.204281      0.321016      0.624148
O      13.75690      5.76132      0.67665        -0.040987     -0.255617     -0.030208
O      13.57112      5.99773     13.89411         0.242656     -0.085816     -1.029931
O       2.09528      5.88842      4.94747        -0.432824     -0.445431      0.845323
O      13.60687      5.72106      5.10084         0.245770      0.179658      1.809533
O       1.95853      5.71813      9.51374        -0.038416      0.354668      0.538764
O      13.85340      5.79789      9.36700        -0.489818     -0.031883      0.348506
O       2.09356      9.80195      0.59953        -0.133301     -0.252989      0.061719
O       1.77398      9.68449     13.86716         0.192842      0.285850      0.344432
O      13.69051     10.05386      0.66614        -0.180190     -0.395417      0.535323
O      13.53961      9.48498     13.94540         0.413854      0.674336      0.219094
O       2.01670      9.55677      5.04355         0.174652      0.424904     -0.105210
O      13.77257      9.63978      5.01878        -0.059567     -0.079557     -0.221157
O       2.09753      9.59209      9.36303        -0.124950     -0.112168      1.917746
O      13.60237      9.87779      9.27688         0.186032     -0.628157      1.359369
O       5.80384      2.25235      0.59507        -0.083387     -0.719179      0.562686
O       5.67404      2.00009     13.77879         0.517711     -0.139683      0.066183
O       5.94215     13.50124      0.50914        -0.065590      0.311700      1.998895
O       5.96715     13.63824     13.88769        -0.196025      0.136458     -0.513399
O       5.87338      1.81589      4.97753         0.126626      0.003640      0.335753
O       5.86904     13.84191      4.97582        -0.055011     -0.886916      0.784128
O       5.91010      2.04820      9.50530        -0.256337     -0.165069     -0.233257
O       5.78528     13.75291      9.42223         0.371113     -0.282799      0.289516
O       5.72670      5.75437      0.61605         0.301024      0.303145      0.446098
O       5.99716      5.99474     13.85104        -0.615689     -0.416412      1.118834
O       5.83897      5.74381      5.00195         0.347272      0.237503      0.156609
O       5.85746      5.68360      9.34914        -0.000895      0.082224     -0.018746
O       6.05479      9.81153      0.69132        -0.280840     -0.252000     -0.129867
O       5.92983      9.53174     13.78742         0.107419      0.482185      1.060969
O       5.96690      9.68944      4.89199        -0.014829      0.423338      1.380840
O       5.89484      9.71001      9.35440        -0.286122      0.106973      1.775656
O       9.74770      2.02487      0.57505         0.183713     -0.226052      0.829742
O       9.58024      2.04803     13.78503         0.796519     -0.434072      0.993834
O       9.83138     13.67912      0.56004        -0.197832      0.218375      0.895110
O       9.73320     13.56048     13.80950         0.140410      0.304301     -0.302537
O       9.72241      1.97322      5.11507         0.267040      0.228469      0.608293
O       9.88706     13.45087      5.10775        -0.326370      0.239756      0.025830
O       9.67038      1.87366      9.50220         0.426178     -0.070586     -1.684986
O       9.80948     13.63930      9.28091        -0.432347      0.186998      1.464232
O       9.98821      5.85605      0.57077        -0.575458      0.052048      0.628320
O       9.73125      5.70210     13.78823         0.000340     -0.016249      0.860309
O       9.79673      5.83326      5.12977         0.192209     -0.156625     -0.327332
O       9.73948      5.75412      9.37175         0.153746      0.212049      0.972616
O       9.66986      9.60667      0.58563         0.031341      0.333967      0.826675
O       9.75945      9.64058     13.75824        -0.125745      0.504018      0.079592
O       9.82314      9.63735      5.02170        -0.296521     -0.192298      0.133711
O       9.87096      9.70550      9.34890         0.035627      0.027309      0.851373
O       3.90707      1.95654      2.84413        -0.044450     -0.515566     -0.432848
O       3.90422      2.03939     15.95884        -0.768436     -0.500598      0.103463
O       3.87459     13.57733      2.50481         0.590199      0.388627      0.691689
O       3.98324     13.64575     16.03915        -1.025801     -0.092104      0.670682
O       0.01284      1.84987      2.83888         0.115733      0.122271      0.020768
O      15.53345      1.96087     15.91127         0.944163     -0.008866      0.161206
O       0.08067     13.68752      2.69839        -0.244323     -0.141757      0.264935
O       0.04704     13.81733     15.92626        -0.514327     -0.797638     -0.343282
O       3.91811      1.78845      7.17813         0.600641      0.240505     -0.019083
O       3.83211     13.62057      7.18903         1.247277      0.058509      0.060980
O       0.02738      1.92508      7.05537         0.404593      0.459599      0.327308
O      15.51185     13.57614      7.12668         1.943655     -0.126757      0.555687
O       3.87685      2.04792     11.68833        -0.501697     -0.511095     -0.307041
O       3.92318     13.58815     11.51472        -0.879685      0.181427      0.362447
O      15.59856      1.81148     11.50662         0.247733      0.490804      0.722285
O      15.59954     13.66899     11.56356        -0.248798     -0.355952      0.408404
O       3.97994      5.93120      2.90005        -0.501259     -0.154070     -0.470548
O       3.84997      5.78734     16.09651         0.879203      0.771067     -0.557192
O       0.15776      5.74723      2.84720        -0.806988      0.052205     -0.051347
O       0.03883      5.91777     16.03222         0.142634     -0.153058     -0.203793
O       3.98660      5.77278      7.21692        -0.869522     -0.077719     -0.190978
O       0.03241      5.82728      7.26378         0.568200     -0.235986     -0.373272
O       3.99185      5.84926     11.55211        -1.901572     -0.201598      0.286431
O      15.51379      5.89056     11.65448         0.984362     -0.184490      0.008644
O       4.00653      9.64421      2.88167         0.032790      0.145026     -0.272365
O       4.00782      9.77685     15.90883        -0.876781     -0.044007      0.331868
O       0.12578      9.76204      2.86588        -1.362431      0.281152      0.011910
O      15.51625      9.53833     16.12725         0.767054      1.234622     -0.619503
O       4.04932      9.71975      7.25773        -1.103806     -0.334277     -0.525981
O       0.10478      9.66260      7.15234        -0.725140     -0.206181      0.222489
O       3.97221      9.80036     11.71083        -1.329392     -0.940625     -0.551774
O       0.00875      9.63452     11.51878         0.088827      0.620440      0.068420
O       7.91365      1.95224      2.88366        -0.596112      0.335911     -0.492749
O       7.76155      1.95544     16.06355         0.000136      0.177383     -0.310280
O       7.76439     13.62083      2.78110         0.593648      0.134038      0.008256
O       7.85932     13.69380     16.02410         0.227848     -0.210863      0.009659
O       7.78283      1.89767      7.28754         0.364039     -0.036328     -0.039671
O       7.79265     13.44153      7.22922        -0.281424      0.807697     -0.505413
O       7.72171      1.88773     11.56038         0.856107     -0.075555      0.498157
O       7.83250     13.76675     11.56786        -0.101585     -0.368600     -0.151495
O       7.83842      5.62942      2.55879         0.564860      0.348286      0.318994
O       7.83581      5.86594     16.13373        -0.245424     -0.166995     -0.277894
O       7.80322      5.90745      7.18774         0.198613     -0.866782     -0.038971
O       7.75666      5.74261     11.55921         0.690904      0.348787     -0.104575
O       7.89143      9.77501      2.97019         0.108359      0.250531     -0.825316
O       7.82445      9.73794     16.06930         0.191152     -0.434386     -0.357291
O       7.79818      9.78512      7.26575         0.201197     -0.236968     -0.564976
O       7.82780      9.63952     11.54986         0.258725      0.288843      0.156455
O      11.72013      1.99692      2.78531        -0.248622     -0.260585      0.144677
O      11.56431      2.00090     15.99287         2.327453     -0.555469      0.275054
O      11.70505     13.53922      2.68155        -0.312130      0.060303     -0.005699
O      11.72232     13.65168     15.92354         0.652451      0.091486      0.264016
O      11.78130      1.86944      7.18834        -0.676824      0.486424      0.526475
O      11.76737     13.82301      7.21835        -0.027946     -1.126325      0.324472
O      11.70594      1.84405     11.58533         0.047403      0.509846     -0.220553
O      11.66062     13.69194     11.52844         0.597465     -0.749449     -0.078286
O      11.88541      5.75000      2.85174        -1.902174      0.783271     -0.119963
O      11.66518      5.83069     15.98547         0.247641     -0.223722      0.131630
O      11.70993      5.76623      7.33120         0.293345      0.256398     -0.216758
O      11.76315      5.83481     11.55617        -0.239535     -0.539860     -0.090488
O      11.80098      9.59508      2.80242        -0.946528      0.549863     -0.162358
O      11.65953      9.79941     16.11815         0.447245     -0.292039     -0.458034
O      11.75194      9.74180      7.03521         0.071641     -0.585937      0.567280
O      11.67306      9.66955     11.67303         0.498333      0.914729     -0.541047
O       2.03764      3.71817      2.75116        -0.260064      1.793373      0.202807
O       2.02198      3.97210     15.74533        -0.629011     -1.809690      0.923623
O       1.99556      0.01374      2.84741         0.208814     -0.262439     -0.446774
O       1.96862     15.55819     16.00798         0.345375      1.243540     -0.178586
O      13.70467      3.81264      2.77376         0.409760      0.499054      0.453325
O      13.63751      3.99134     16.01684         0.178881     -0.990619      0.097152
O      13.60624     15.52912      2.78646        -0.025982      0.343004     -0.160099
O      13.61629      0.00622     15.97071        -0.049680      0.195081      0.173978
O       2.05857      3.85273      7.24540        -0.358114      0.890273     -0.347840
O       1.88260     15.58130      7.34407         0.343390     -0.721839     -0.718086
O      13.77294      3.79914      7.19902        -0.624294      1.031124      0.252948
O      13.77969     15.59688      7.16016        -0.267612     -0.210933      0.339319
O       1.88905      3.86589     11.59932        -0.098679      0.229572      0.002767
O       1.98246     15.52380     11.50955        -0.011879      0.038276      0.667874
O      13.67983      3.84062     11.47000         0.101390      0.537980      0.187031
O      13.62314      0.00291     11.45763         0.239032     -1.164681      0.665225
O       1.97247      7.86565      2.79076         0.121248     -1.697797     -0.038940
O       2.00926      7.85793     15.93303         0.333761     -0.849377      0.482063
O      13.84520      7.85487      2.62712        -0.203504     -0.957730      0.336538
O      13.58112      7.78034     16.37708        -0.171455      0.182914     -1.157297
O       2.07171      7.69153      7.07999         0.015874     -0.309236      0.572849
O      13.70921      7.74782      7.30997        -0.295969     -0.102643     -0.384341
O       1.99418      7.78470     11.78116        -0.261391     -0.575998     -1.119316
O      13.61735      7.87016     11.46144         0.111277     -0.774905     -0.219082
O       2.01286     11.65042      2.75644         0.261170      0.497436      0.467653
O       1.92435     11.66484     16.01975        -0.051205      0.028343      0.114220
O      13.69412     11.79344      2.91771         0.270473     -1.470028     -0.155524
O      13.80710     11.76868     15.94416        -0.516615     -0.524527     -0.259284
O       2.01622     11.59244      7.15273        -0.232648      0.400236      0.228784
O      13.74138     11.64564      7.21975        -0.499467     -0.290417     -0.439099
O       2.00151     11.66159     11.65086        -0.799528      0.070404     -0.284244
O      13.66052     11.67103     11.58363        -0.064229      0.014534     -0.072102
O       5.72933      3.84564      2.91743         0.887097      0.558723     -0.172837
O       5.90109      3.91206     15.96517        -0.296461      0.393802     -0.173069
O       5.78322      0.10269      2.67184         0.516491     -1.433772      0.005831
O       5.89807      0.02247     15.99502        -0.528619      0.552651      0.163419
O       5.89583      3.76312      7.10484        -0.168181      0.796037      0.225298
O       6.00306     15.49563      7.31925        -0.755089     -0.060598     -0.664835
O       5.82675      3.90922     11.68729        -0.051010     -0.030344     -0.144253
O       5.84307     15.57672     11.63000        -0.468197      0.430333      0.174745
O       6.11262      7.77336      2.75169        -0.432827     -0.294509     -0.411695
O       5.92647      7.72266     16.12587        -0.380070      0.765956      0.042940
O       5.88095      7.76743      7.08529         0.003464     -0.032811      0.219824
O       5.90211      7.75745     11.49344        -0.346020     -0.199160      0.208755
O       5.85950     11.66194      2.78752         0.220378      0.884330      0.287866
O       5.95003     11.71632     15.93366         0.043904     -1.383113      0.236467
O       5.82555     11.60557      7.32957        -0.052111      1.520330     -1.065670
O       5.88774     11.66196     11.60368         0.437864      0.471152      0.096136
O       9.85409      3.91125      2.66558         0.075004      1.405101      0.644089
O       9.80402      3.82626     16.04152        -0.559961      1.165396     -0.019822
O       9.90442     15.50363      2.84168        -0.747805      0.599056     -0.316108
O       9.72771     15.57758     16.08084         0.525156      0.248199     -0.468991
O       9.81963      3.83525      7.30223        -0.252353      0.661247     -0.155196
O       9.84223     15.59732      7.03260        -0.692185     -0.227857      0.985844
O       9.65344      3.82266     11.57781         0.797873      0.388733      0.143831
O       9.79803     15.56071     11.55598        -0.440415     -0.568239      0.234178
O       9.77501      7.76434      2.74355         0.085338     -0.564209      0.210155
O       9.88589      7.70243     15.87475        -0.627548      1.100882      0.290876
O       9.68402      7.83016      7.29678         0.754601     -0.895281     -0.360727
O       9.85361      7.72074     11.55754        -0.580206     -0.014987     -0.407509
O       9.79874     11.63142      2.69964        -0.158738      0.280728      0.227228
O       9.81132     11.66676     15.90322        -0.339395     -0.092895     -0.066899
O       9.80988     11.64519      7.18240         0.219228     -0.243802      0.370041
O       9.62470     11.65550     11.52695         0.743288      0.330818      0.207558
