  # total energy = -7862.58909697 
CRSYTAL
PRIMVEC
    15.010000000000000    0.0000000000000000    0.0000000000000000
     0.0000000000000000   15.010000000000000    0.0000000000000000
     0.0000000000000000    0.0000000000000000    16.400000000000000
PRESSURE
17.7397 18.2069 7.13857 0.132496 0.094286 -0.000812
PRIMCOORD
320 1
Pb       4.03134      3.67048      4.40142        -1.109803      0.557850     -0.756530
Pb       3.84270      3.79710      0.16256        -0.121566     -0.358858     -0.799191
Pb       3.67368      0.16932      4.16898        -0.274125     -0.505385     -0.876048
Pb       3.79279      0.02433     16.35157        -0.553448     -0.207621      0.041705
Pb      14.93914      3.62761      4.07090         0.093409      0.254997      0.104995
Pb       0.04075      3.66717     16.36139        -0.273458      0.448897     -0.318103
Pb      14.98427      0.06229      4.23773         0.472846     -0.168531     -0.929035
Pb      14.88492      0.01546      0.06070         0.274772     -0.630763     -0.680011
Pb       3.82775      3.62723      8.34420        -0.376727      0.811507      0.020756
Pb       3.86282     14.86466      8.32586        -1.210670     -0.046158     -0.044670
Pb       0.09498      3.77312      8.33883        -0.193366      0.004445     -0.810518
Pb      14.97288     14.87711      8.18017         0.257335     -0.034716      0.280588
Pb       3.82710      3.74772     12.21431        -0.784672     -0.668510      0.163916
Pb       3.73805      0.01634     12.51855        -0.119675      0.200227     -0.400647
Pb       0.06181      3.67480     12.34532        -0.434964      0.204147     -0.153124
Pb       0.04158      0.02146     12.30114        -0.586064      0.314321      0.139563
Pb       3.49666      7.56971      4.09546         0.717229     -0.238333      0.125422
Pb       3.77291      7.40725      0.29464        -0.523283     -0.494921     -0.946247
Pb      14.90175      7.48989      4.13129        -0.023075     -0.245582     -0.407105
Pb      14.94614      7.54894      0.10366         0.069715     -0.357729     -0.883387
Pb       3.68859      7.56729      8.03132         0.193186     -0.160386      0.590304
Pb       0.00654      7.52260      8.24230        -0.275173     -0.236918     -0.094405
Pb       3.77505      7.59895     12.30197        -0.449121     -0.361961     -0.095726
Pb       0.07927      7.30069     12.33855        -0.318192      0.334066     -0.033320
Pb       3.53074     11.25018      4.23648         0.406289     -0.116922     -0.849269
Pb       3.71707     10.98532     16.31879        -0.379886      1.609005     -0.262225
Pb      14.96413     11.22609      4.12439        -0.248198      0.078974     -0.446722
Pb      14.91591     11.39128      0.07816         0.034679     -0.173387     -0.382458
Pb       3.66785     11.06380      8.26782         0.120171      0.518347      0.192917
Pb      14.99398     11.13052      8.18403        -0.404944      0.523266      0.366472
Pb       3.75551     11.31345     12.37489         0.068650     -0.235955      0.041107
Pb       0.02519     11.30323     12.33378        -0.824614     -0.406171      0.098258
Pb       7.51814      3.69225      4.19423         0.589173     -0.259668     -0.295266
Pb       7.56632      3.86551     16.37473        -0.259004     -0.301715     -0.026362
Pb       7.45822     14.87123      4.29258         0.814322      0.809029     -1.115188
Pb       7.30820     15.00920     16.39739         0.363671      0.212629      0.141864
Pb       7.52918      3.64365      8.24764         0.172726      0.366770      0.076599
Pb       7.51840     14.99527      8.30767         0.456987     -0.616202     -0.180451
Pb       7.46026      3.74404     12.24787         0.161020     -0.759171      0.308712
Pb       7.61628     14.80804     12.46052        -0.253949      0.460730     -0.589564
Pb       7.24298      7.53464      4.02492         0.603127      0.148032     -0.329141
Pb       7.49684      7.47981      0.08845         0.054331     -0.461825     -0.187261
Pb       7.49934      7.49489      8.40934        -0.680519      0.129662     -0.356114
Pb       7.59913      7.40642     12.54686        -0.231088      0.317772     -0.382284
Pb       7.44886     11.37517      4.11774         0.070703     -0.369975     -0.591981
Pb       7.53380     11.27824      0.12675        -0.076912      0.312646     -0.802057
Pb       7.43665     11.19247      8.28070        -0.784575      0.146423      0.369737
Pb       7.55504     11.15431     12.37859        -0.607372      0.324188     -0.054262
Pb      11.13297      3.76225      4.17249         0.406641     -0.260612     -0.636188
Pb      11.32417      3.84070     16.38722        -0.355880     -0.385254     -0.244325
Pb      11.45674     15.00461      4.28466        -1.668215     -0.126644     -1.395813
Pb      11.01237     14.91940      0.16538         1.179281     -0.176132     -0.545783
Pb      11.46480      3.79510      8.12420        -0.656869     -0.400032      0.042850
Pb      11.33539     14.86290      8.26820        -0.645437      0.104967      0.331164
Pb      11.35199      3.72608     12.19417         0.129965     -0.565778      0.506413
Pb      11.29857      0.15704     12.30311         0.298235     -0.125565     -0.248802
Pb      11.19478      7.45690      4.23472         0.043423     -0.051589     -0.935864
Pb      11.08300      7.46382      0.17385         0.481765     -0.085639     -0.746469
Pb      11.03690      7.44319      8.19514         1.011139      0.142312      0.134219
Pb      11.32889      7.29516     12.30344         0.005832      0.536794     -0.052264
Pb      11.31122     11.30577      4.19375        -0.622643     -0.250272     -0.705374
Pb      11.20828     11.11448      0.10187         0.230625      0.619878     -0.610317
Pb      11.01885     11.15823      8.33993         1.107968      0.176401     -0.928624
Pb      11.17205     11.33098     12.25888         0.407711     -0.524363      0.064990
Ti       1.82073      1.88380      1.93096         0.404853     -0.428973      1.140451
Ti       1.77591      1.83940     14.21931         1.213849      0.254657      0.687503
Ti       1.80339     13.20006      2.12385         0.318509     -0.212157     -1.377968
Ti       1.80205     13.07622     14.42524         0.555523      0.699056      0.650752
Ti      13.11701      1.85414      2.01180        -0.706220      0.811199      0.105655
Ti      13.06373      1.87243     14.47132         1.236298     -0.540470     -1.187790
Ti      13.04482     13.12694      2.10695        -0.558073     -0.221905      0.581419
Ti      13.07670     13.11321     14.21268         0.202850      0.777703      1.593829
Ti       1.87883      1.85318      6.16762        -0.785422      1.096492      0.099855
Ti       1.83791     13.17904      6.20715        -0.013755     -0.373423     -0.276982
Ti      13.11728      1.74837      6.21823         1.063391      2.721648      0.025060
Ti      13.06353     13.06594      6.19126         0.544895     -1.006101      0.319141
Ti       1.87711      1.81751     10.19314         1.387119     -0.333324      1.195644
Ti       1.83116     13.11801     10.31419         0.225049      0.814987     -1.120284
Ti      13.24343      1.85808     10.11343        -0.658192     -0.241940      1.834096
Ti      13.15767     13.08491     10.34342        -0.106380      1.296371     -0.709150
Ti       1.75143      5.57243      2.10617         0.548957      0.471803      0.600541
Ti       1.86856      5.57120     14.44085         0.552285     -0.205404     -1.093825
Ti      13.07659      5.62058      1.96078        -0.196108     -0.557007      0.750437
Ti      13.14461      5.62371     14.30811        -0.035106      0.399893      0.314318
Ti       1.83313      5.56567      6.11490         0.190527      0.258380     -0.695911
Ti      13.14631      5.61430      6.09978         0.257183     -0.768677     -0.127123
Ti       1.85111      5.59765     10.23007         0.894872      0.788889      0.002491
Ti      13.12658      5.63282     10.17874         0.410353     -0.451477      1.290656
Ti       1.79912      9.39886      1.98016        -0.037768      0.323382      1.011220
Ti       1.69607      9.30663     14.29771         0.803095      0.286553      1.526173
Ti      13.09505      9.32857      1.95153        -0.369253      0.859610      0.737091
Ti      13.07243      9.36139     14.32034         0.474498      0.503839     -0.403798
Ti       1.71431      9.39179      6.19966         1.733559     -0.192467     -0.597917
Ti      13.00229      9.37634      6.09501        -0.511532      0.035523      0.481567
Ti       1.75300      9.40151     10.43526         0.905868     -1.108815     -1.234200
Ti      13.07586      9.33207     10.28661         0.852772      0.862818     -0.044083
Ti       5.62710      1.90565      2.22415         1.071221     -0.561860     -1.604921
Ti       5.63704      1.92746     14.47737        -0.485428      0.259402     -0.494953
Ti       5.55778     13.18717      2.01281        -0.829038      0.054571     -0.502134
Ti       5.55327     13.09602     14.28434         0.962391     -0.592615      1.780122
Ti       5.65037      1.80737      6.28109         0.894684      0.433325     -0.574446
Ti       5.49537     13.19452      6.09002         0.663705     -1.345194      0.674665
Ti       5.66387      1.76993     10.26515        -0.181204      2.161017      1.239471
Ti       5.54392     13.13294     10.21648         1.431449     -0.948166      0.365252
Ti       5.52636      5.57781      2.18382         0.854156      1.050467     -0.396385
Ti       5.53756      5.57663     14.15920        -0.023176      0.489554      1.561719
Ti       5.65301      5.69116      6.17826        -0.633345      0.302612      0.591845
Ti       5.58287      5.64357     10.28399         0.223133     -0.617836     -0.659870
Ti       5.61429      9.47791      1.91288        -0.016782     -0.443729      1.973116
Ti       5.58452      9.25337     14.45196        -0.101203      1.568003     -1.425560
Ti       5.55748      9.48139      6.05618        -0.543154     -0.548049      0.544105
Ti       5.58014      9.41296     10.39276        -0.062278     -0.053759     -0.648893
Ti       9.39336      1.85746      1.90443        -0.931901     -0.446548      2.130535
Ti       9.36325      1.79765     14.39139         0.440711      1.575981     -0.624885
Ti       9.29999     13.12212      2.04760         1.594758      0.986045      0.589524
Ti       9.42277     13.06962     14.38712        -0.619607      0.796876     -0.017413
Ti       9.39190      1.81398      6.15263         0.212817     -0.195274      0.397639
Ti       9.28459     13.05065      6.26907         0.310842      0.884266     -0.496498
Ti       9.45681      1.86102     10.23309         0.048807     -0.020502      0.672140
Ti       9.39755     13.16791     10.26748        -1.252287     -0.189243      0.312238
Ti       9.31823      5.57768      2.09300         0.106802      0.158509     -0.200779
Ti       9.42725      5.59718     14.38805        -0.081644     -0.525730      0.532398
Ti       9.31500      5.61006      6.21228         0.180715     -0.759582     -0.613702
Ti       9.32104      5.55634     10.35279         1.286349      0.154893     -0.979117
Ti       9.39529      9.36303      2.06130        -0.513095      0.456460      0.714264
Ti       9.33706      9.32454     14.36119         0.721553      0.593589      0.479137
Ti       9.20976      9.32047      6.04201         1.123053      0.951515      0.352702
Ti       9.36756      9.35967     10.27825        -0.359087     -0.131198      0.171539
O       1.69762      1.74428      0.15087         0.636712      0.362237     -0.129883
O       1.76143      1.94783     12.37353         0.322304     -0.153496      0.565683
O       1.84824     13.28584      0.22125        -0.258672     -0.290026      0.290661
O       1.97960     13.17069     12.59611        -0.181777     -0.451823     -1.048212
O      13.15735      2.00114      0.17745        -0.000334     -0.397969      0.038644
O      13.18316      1.91790     12.56913        -0.169379      0.160565      0.104167
O      12.95316     13.13601      0.33886         0.095565     -0.258022     -1.067626
O      13.18531     13.28844     12.44121        -0.475561     -0.623376     -0.517185
O       1.73742      1.87099      4.33402         0.872201      0.115453     -0.042429
O       2.07150     13.06431      4.33933        -0.856671      0.821611     -0.027312
O      13.25762      1.77449      4.37539        -0.654930      0.051142     -0.552171
O      13.07634     13.12417      4.35654         0.032192      0.289680     -0.046355
O       1.99069      1.92012      8.39717        -0.187965     -0.123673     -1.290358
O       1.67630     13.12013      8.42595         0.385427      0.267190     -0.025288
O      13.25047      1.79805      8.34392        -0.388547      0.120600     -1.531703
O      13.18716     13.16170      8.45428         0.203962     -0.019723     -0.557375
O       1.91913      5.69725      0.27927         0.015051     -0.078435     -1.137520
O       1.87957      5.57454     12.51774        -0.115550      0.212278      0.171201
O      13.05581      5.62718      0.12813         0.240943      0.413662      0.430180
O      13.07060      5.55058     12.44367         0.286889      0.547482     -0.074448
O       1.76036      5.67627      4.19972         0.271126     -0.061458      1.075801
O      13.07334      5.62635      4.26093        -0.008689      0.073077      0.411918
O       1.84555      5.68822      8.36435        -0.263462     -0.031391     -0.165818
O      13.13656      5.63981      8.42264         0.148004      0.181270     -1.961179
O       1.71750      9.36790      0.20529         0.461988     -0.124092     -0.779318
O       1.67496      9.34228     12.50456         0.469253      0.270873     -0.958818
O      13.10619      9.42315      0.10897        -0.041693     -0.260078      0.609124
O      13.26546      9.53246     12.50789        -0.691571     -0.681932     -0.295436
O       1.85741      9.50116      4.29796         0.021492     -0.461970      0.014510
O      13.08295      9.50966      4.27550        -0.010759     -0.815339      0.285700
O       1.81424      9.40962      8.42129        -0.127620     -0.313325     -0.048119
O      13.21498      9.45817      8.44749        -0.537596     -0.338353     -0.439409
O       5.62585      1.96143      0.21908        -0.259247      0.192873      0.180451
O       5.73574      2.06569     12.65298        -0.063302     -0.608571     -1.003297
O       5.67682     13.22727      0.13567        -0.059096     -0.079999      0.582198
O       5.58827     13.05110     12.49397        -0.223613      0.499147     -1.266496
O       5.66459      1.76256      4.32720        -0.191732      0.280794      0.559584
O       5.52263     13.30266      4.26004        -0.000671     -0.518001     -0.127721
O       5.50814      1.96467      8.43985         0.369098     -0.788147     -1.514838
O       5.67536     13.12554      8.39135        -0.249019      0.198301     -0.133646
O       5.49772      5.56749      0.29586         0.121428      0.309962      0.196873
O       5.49117      5.49161     12.34874         0.549047      0.997766      0.479163
O       5.71967      5.69922      4.34233        -0.390015     -0.395089     -0.462501
O       5.74522      5.63104      8.42684        -0.055966      0.120069     -0.851579
O       5.65326      9.37676      0.09146         0.078431     -0.440470     -0.530698
O       5.74719      9.42455     12.47207        -0.353779     -0.401347     -0.110389
O       5.56439      9.57459      4.25925         0.097170     -0.550537     -0.113586
O       5.54067      9.40606      8.44181        -0.050257      0.111040     -0.241669
O       9.43501      1.74070      0.14937        -0.193748      0.489211     -1.212965
O       9.39754      1.92113     12.50525        -0.214965     -0.329031      0.341871
O       9.43185     13.10652      0.18658        -0.202617      0.416816     -0.519967
O       9.41401     13.20505     12.50351        -0.086893     -0.353720     -0.360333
O       9.29475      1.87784      4.36915         0.246453      0.088452     -0.493461
O       9.15555     13.10417      4.43030         0.623058     -0.320063     -0.016817
O       9.35411      1.89739      8.44212         0.529729      0.055536     -0.802605
O       9.38624     13.17388      8.39902        -0.253945     -0.228129     -0.082400
O       9.45594      5.68671      0.16376        -0.635256      0.147919      0.509038
O       9.46970      5.71657     12.54301        -0.097990      0.093714     -0.842108
O       9.37546      5.55121      4.32227         0.042297      0.259735     -0.084381
O       9.32705      5.47903      8.42555         0.063250      0.726913     -0.025260
O       9.38831      9.41469      0.19643        -0.328270     -0.357376     -0.353148
O       9.35435      9.38977     12.51408        -0.164767     -0.360870     -0.737475
O       9.39569      9.55122      4.26048        -0.646411     -0.544158     -0.006234
O       9.48981      9.38165      8.37608        -0.637087     -0.387178      0.492602
O       3.72551      2.00818      2.25374        -0.451822      0.367855      0.214014
O       3.70279      1.72031     14.45099        -0.042785     -0.205379      0.401339
O       3.70642     13.06041      2.13726         0.837489     -0.310086      0.414409
O       3.73905     13.36062     14.56992        -0.509773      0.205352      0.191546
O      14.97894      1.71258      2.27746        -0.124617     -0.179878      0.064547
O      15.00330      2.10532     14.58136        -0.673104      0.281455     -0.038395
O      14.91452     13.27797      2.28083         0.544582      0.033417      0.281273
O      14.98593     13.01434     14.68061        -0.851224     -0.633162     -0.153745
O       3.82341      2.08033      6.30098        -1.035868      0.614606      0.049210
O       3.68650     12.90729      6.54440         0.414428     -0.061522     -0.108621
O       0.02296      1.50003      6.28369        -0.507716      0.184737      0.784861
O      14.95445     13.45198      6.17825         0.441608      0.106684      0.807010
O       3.76004      2.06324     10.52223         0.191114      0.044721     -0.104699
O       3.72281     12.95336     10.31525         0.152064     -0.159156      0.497327
O       0.08872      1.68560     10.41099        -1.208032      0.007817     -0.037680
O       0.02359     13.37161     10.60773        -0.261491     -0.263044     -0.223335
O       3.72763      5.48496      2.33539        -1.024995     -0.098550      0.102675
O       3.73023      5.94037     14.52934         0.054322     -0.271323      0.272642
O      14.93009      5.89193      2.23580         0.325618      0.313621     -0.027580
O      14.97775      5.39892     14.51182         1.047752      0.313846      0.254788
O       3.73285      5.36414      6.34172         0.272403     -0.226155      0.005737
O      14.99243      5.98782      6.31798        -0.120173     -0.211003      0.296800
O       3.74241      5.37632     10.39435        -0.073491      0.268917     -0.066207
O       0.00766      5.83468     10.42166        -0.077775     -0.107258     -0.008255
O       3.76141      9.65593      2.07941        -0.613254     -0.433135      0.374069
O       3.68163      9.23190     14.47808         0.296635     -0.337293      0.300243
O      14.93619      9.16688      2.28458         0.623253      0.041671     -0.025350
O      14.96746      9.72418     14.67157        -0.163918     -0.207531     -0.169375
O       3.62602      9.61882      6.39077         1.252415      0.474911     -0.129091
O      14.94920      9.26785      6.23597        -0.688630     -1.003179      0.706816
O       3.69855      9.60851     10.60057         0.316627     -0.039186      0.067538
O      14.97381      9.31433     10.51858         0.049749     -0.295007     -0.150551
O       7.50340      1.81468      2.20265        -0.023764      0.195960      0.132222
O       7.55989      2.16231     14.67901        -0.858124     -0.429814     -0.120014
O       7.52379     13.17931      2.28112        -1.640990      0.492580      0.308450
O       7.49034     13.04844     14.44456        -0.150746      0.248190      0.210197
O       7.53520      1.53899      6.38119        -1.278076      0.050574      0.496939
O       7.40040     13.46816      6.33283         0.350533     -0.218836      0.385177
O       7.51715      1.72515     10.27085         0.164826      0.055828      0.763014
O       7.50969     13.30837     10.37217         0.128822      0.294559      0.606585
O       7.48769      5.77182      2.13609        -0.708939      0.307779      0.463658
O       7.48328      5.54050     14.41630        -0.430847     -0.257995      0.172803
O       7.50603      5.97420      6.29335        -0.229533      0.292349      0.610883
O       7.54752      5.71786     10.60403        -1.379482      0.697842      0.063876
O       7.50400      9.28904      2.22224        -0.394068      0.055686      0.005713
O       7.47637      9.50618     14.49290         0.138203      0.117450      0.448658
O       7.39063      9.01347      6.29507         0.233222      0.291397      0.386799
O       7.50168      9.37596     10.22169         0.353643     -0.574414      0.746650
O      11.21339      2.14340      2.32180         1.066410     -0.348129      0.030876
O      11.27675      1.85598     14.61497        -1.045483     -0.443852      0.041051
O      11.14671     13.13107      2.59618         0.935863     -0.338623     -0.547005
O      11.24253     13.34887     14.51532         0.341001      0.019591      0.066992
O      11.26631      2.19439      6.26514         0.157120     -0.222631      0.431147
O      11.21681     12.89388      6.40042        -0.224178     -0.342196      0.057500
O      11.36889      2.06420     10.45113        -1.194363     -0.032331      0.020002
O      11.27466     13.13518     10.40439         0.177497     -0.690111      0.461562
O      11.18585      5.51628      2.24658         1.007425     -0.220992      0.216306
O      11.26797      5.88891     14.56907         0.078113      0.273422     -0.138558
O      11.25997      5.39537      6.41635        -0.536079     -0.061668     -0.097659
O      11.28859      5.50716     10.53509        -0.868604      0.117040     -0.238322
O      11.22260      9.50004      2.30302         0.523425      0.020631     -0.253265
O      11.21059      9.25062     14.55422         0.261777     -0.173022      0.061024
O      11.17505      9.68328      6.31615         0.428020     -0.246071      0.196358
O      11.26766      9.55789     10.44965        -0.712419      0.133983      0.389915
O       1.51123      3.75632      2.20828         0.679901     -0.359074     -0.144518
O       2.02565      3.70994     14.54934         0.218901      0.754398      0.666947
O       1.99436      0.04349      2.32635        -0.091059     -0.201684      0.393895
O       1.52941      0.01661     14.40947         0.782814     -0.172529      0.387480
O      13.35748      3.76071      2.24088        -0.410420      0.322378      0.117867
O      13.01635      3.84453     14.55255        -0.695542     -1.544150      0.398233
O      12.94212      0.03064      2.21950        -0.263396      0.058036      0.381472
O      13.30936     14.99458     14.55993        -0.049193      0.757767      0.291661
O       1.52978      3.75565      6.27635         0.262875     -0.190462      0.457188
O       2.11980      0.05817      6.33934         0.524705     -1.473683      0.371269
O      13.40954      3.72652      6.40344        -0.210509      0.136263      0.148149
O      12.79943     14.97200      6.43253         0.202090     -0.337634     -0.134564
O       1.64114      3.76057     10.35398         0.209522     -0.205653      0.170452
O       2.16287     14.97236     10.57083        -0.368743      0.504777     -0.263247
O      13.30917      3.74152     10.30620         0.420983      0.358590      0.436921
O      13.05784      0.06524     10.48355        -0.260416     -0.504489      0.005784
O       2.09534      7.51999      2.24152        -0.381280      0.528375     -0.147250
O       1.60072      7.46771     14.52846        -0.398754      0.676429      0.249435
O      12.93331      7.50595      2.24358        -0.248117     -0.228728      0.121103
O      13.41880      7.53778     14.45496        -0.122088     -0.093650      0.126092
O       2.09850      7.49692      6.23700        -0.293130      0.677127      0.325408
O      12.82294      7.46835      6.26519         0.092377      1.240156      0.349856
O       2.09434      7.51450     10.55510        -0.362591      0.031926     -0.150271
O      13.08048      7.51061     10.38476        -0.558052      0.071029      0.576197
O       1.61424     11.26343      2.24176         0.284790      0.192547      0.141216
O       2.08409     11.23769     14.60411        -0.316591     -0.009316     -0.241077
O      13.17026     11.20758      2.26474         0.123234      0.629677      0.077852
O      12.91965     11.30465     14.46967        -0.146903     -0.032081      0.398377
O       1.57791     11.32100      6.31348         0.014804     -0.543727      0.297456
O      13.39657     11.22982      6.31849        -0.151973      0.665539      0.313574
O       1.68336     11.27854     10.48912         0.028456     -0.263936      0.452883
O      13.27663     11.31093     10.56702         0.051997     -0.726280     -0.026340
O       5.72491      3.77808      2.49791        -0.028683     -0.150692     -0.073542
O       5.37063      3.84244     14.61692        -0.002170     -0.692861      0.445885
O       5.63676      0.07415      2.21087        -0.590883     -1.442195      0.025796
O       5.67013      0.05151     14.54515         0.874816     -0.258952      0.082954
O       5.96906      3.73026      6.19616        -0.530195      0.070997      0.486836
O       5.30112     14.98193      6.48633         0.216103      1.039571     -0.155162
O       5.74784      3.73777     10.44941         0.498735     -0.114382      0.080319
O       5.50625      0.01471     10.48855        -0.529284     -1.176216      0.357585
O       5.51272      7.56846      2.35219        -0.363423     -0.091323     -0.376618
O       5.77608      7.44656     14.45523         0.336907      0.251276      0.257916
O       5.18965      7.54954      6.18986         0.752677     -0.107660      0.415858
O       5.43854      7.51259     10.38084         0.252050      0.039711      0.596935
O       5.85828     11.30808      2.03386        -0.211938      0.122275      0.515363
O       5.44875     11.22660     14.51870        -0.155043      0.344530      0.229950
O       5.88858     11.34323      6.24997        -0.131141     -0.768033      0.441917
O       5.81208     11.29926     10.43485        -0.158377     -0.301246      0.394652
O       9.20086      3.73374      2.09414        -0.012023      0.678345      0.485983
O       9.55306      3.79244     14.70977        -0.101174     -0.154396     -0.182379
O       9.49327      0.00517      2.23438         0.047212      0.288710     -0.019209
O       9.25881     15.00507     14.50074        -0.402749      0.200885      0.373870
O       9.03807      3.73295      6.30671         0.187896      0.453866      0.386996
O       9.66268     14.96721      6.42108        -0.056098      0.195465      0.028348
O       9.17642      3.74646     10.56278         0.615668     -0.552598     -0.138079
O       9.58904     15.00972     10.50595        -0.303038      0.970360      0.076814
O       9.47989      7.51454      2.23447         0.021559     -0.204216      0.195767
O       9.18966      7.49525     14.66163        -0.243604      0.460897     -0.173427
O       9.69758      7.52444      6.30154        -0.422650     -0.430808      0.086125
O       9.48466      7.50469     10.34020         0.142209     -0.009215      0.440841
O       9.33122     11.30331      2.08691        -0.358018     -1.325594      0.549079
O       9.47355     11.28696     14.57232         0.273052     -1.420353      0.010719
O       9.08389     11.18150      6.50113        -0.319439      0.476759     -0.299100
O       9.28127     11.29457     10.52523         0.331552     -0.519964     -0.097384
