  # total energy = -7861.90393835 
CRSYTAL
PRIMVEC
    15.010000000000000    0.0000000000000000    0.0000000000000000
     0.0000000000000000   15.010000000000000    0.0000000000000000
     0.0000000000000000    0.0000000000000000    16.400000000000000
PRESSURE
16.3033 16.5188 5.08191 -0.005845 0.046695 0.061443
PRIMCOORD
320 1
Pb       4.01869      3.67573      4.41979        -0.840472      0.570336     -0.967731
Pb       3.84467      3.79800      0.17074        -0.576620     -0.177275     -0.586334
Pb       3.65579      0.17236      4.16839         0.054509     -0.773757     -0.540969
Pb       3.76992      0.01840     16.34971        -0.370081      0.205726      0.333390
Pb      14.95327      3.63167      4.06251        -0.046902      0.093460      0.007934
Pb       0.05057      3.68414     16.36375        -0.248137      0.439162     -0.165850
Pb       0.00255      0.05739      4.22579        -0.080976     -0.449517     -1.313772
Pb      14.88691      0.01641      0.05091         0.276162     -0.267261      0.185051
Pb       3.82611      3.63899      8.34948        -0.042481      0.280758     -0.493671
Pb       3.84313     14.83647      8.33662        -0.518602      0.606023     -0.470352
Pb       0.12237      3.78286      8.34093        -0.109323      0.173224     -0.593937
Pb      14.99579     14.87283      8.19157         0.152719      0.160643      0.170261
Pb       3.80501      3.75329     12.21630        -0.292283     -0.225677      0.250259
Pb       3.73311      0.01563     12.53091         0.453786     -0.375444     -0.733889
Pb       0.07722      3.67958     12.34897        -0.707779      0.337330     -0.273691
Pb       0.04079      0.02717     12.30698        -0.332132     -0.250574      0.112520
Pb       3.48983      7.56062      4.10397         0.618739     -0.166582     -0.057851
Pb       3.75870      7.39427      0.31000        -0.400577      0.043022     -1.390433
Pb      14.88522      7.48369      4.13050        -0.156698      0.263961     -0.205186
Pb      14.94037      7.55631      0.09102         0.100787     -0.473413     -0.422858
Pb       3.68927      7.55037      8.02940         0.345548     -0.038660      1.294814
Pb       0.00172      7.50689      8.25421        -0.508984      0.065782     -0.383450
Pb       3.76754      7.59936     12.30210         0.010298      0.109848     -0.049689
Pb       0.08859      7.29543     12.34767        -0.508426      0.886690     -0.039222
Pb       3.51859     11.27249      4.23778         0.278252      0.235495     -1.232110
Pb       3.69445     11.00527     16.31793         0.202814      0.966040      0.260393
Pb      14.95523     11.24407      4.12287        -0.089125     -0.073856     -0.394911
Pb      14.90595     11.38765      0.06576        -0.098914     -0.248386     -0.093377
Pb       3.66643     11.07735      8.28576        -0.056166      0.022017      0.237152
Pb      14.99024     11.13524      8.21022        -0.594840      0.033712      0.001292
Pb       3.74583     11.32099     12.37956        -0.200200     -0.119409     -0.379034
Pb       0.01769     11.29940     12.33368        -0.602907     -0.092274      0.249008
Pb       7.54007      3.68088      4.20681         0.032964      0.106955     -0.074586
Pb       7.58262      3.86046     16.38043        -0.650165     -0.404241     -0.403830
Pb       7.47209     14.89181      4.29355        -0.223574      0.535142     -0.547405
Pb       7.31471      0.00914      0.00521         0.567428      0.402189     -0.085914
Pb       7.54305      3.64610      8.25072        -0.077989      0.454710     -0.068805
Pb       7.53081     14.97720      8.31774         0.199634     -0.199070     -0.315331
Pb       7.47540      3.73493     12.24375         0.186666      0.007447      0.411278
Pb       7.62366     14.80373     12.47071        -0.806124      0.985269     -0.498727
Pb       7.23769      7.54125      4.03274         0.985991      0.194774      0.276555
Pb       7.51162      7.49362      0.10159        -0.471219     -0.070563     -0.461724
Pb       7.49158      7.50188      8.41595        -0.325473     -0.069272     -0.500705
Pb       7.60745      7.40515     12.55921        -0.659172     -0.020985     -0.775906
Pb       7.43728     11.38565      4.11960        -0.194013     -0.854673     -0.409508
Pb       7.52858     11.28487      0.13420         0.199448     -0.339142     -1.045232
Pb       7.41677     11.18808      8.30297        -0.209437     -0.238873     -0.156682
Pb       7.55076     11.15103     12.39258        -0.542063     -0.249639     -0.045585
Pb      11.12718      3.75875      4.17757         0.676029     -0.386914     -0.724291
Pb      11.31472      3.83479     16.38515        -0.015153     -0.841262     -0.023521
Pb      11.43012      0.01461      4.28189        -0.568440     -0.152548     -0.750289
Pb      11.00726     14.93497      0.17604         1.618172      0.406186     -0.956705
Pb      11.45310      3.80448      8.12737        -0.644495     -0.434606      0.203839
Pb      11.32220     14.86263      8.28128        -0.525193      0.043227     -0.068846
Pb      11.35586      3.72621     12.20319         0.028630     -0.473872      0.499476
Pb      11.29691      0.16126     12.30773         0.221173     -0.228381     -0.413725
Pb      11.18364      7.45539      4.23703         0.065929      0.003182     -0.796787
Pb      11.07960      7.47355      0.17597         0.829443      0.230805     -0.458163
Pb      11.04260      7.44885      8.20112         0.705075      0.385921     -0.159843
Pb      11.34438      7.30188     12.30662        -0.301160      1.185030     -0.446807
Pb      11.29896     11.31153      4.19430        -0.359157     -0.624049      0.105665
Pb      11.21692     11.11109      0.10695         0.032788      0.670383     -1.053946
Pb      11.01041     11.14381      8.34429         0.978160     -0.135517     -0.661350
Pb      11.17307     11.32317     12.26433         0.917361     -0.491514     -0.406872
Ti       1.83609      1.88934      1.94520        -1.158056     -1.014209      0.407053
Ti       1.79616      1.83817     14.19757         0.650257      0.339667      1.597640
Ti       1.81930     13.17845      2.05195         0.260449      0.020256     -0.240567
Ti       1.85210     13.06762     14.47224        -0.357970      1.033671     -0.610535
Ti      13.09062      1.90766      2.03351         0.344282     -0.645424     -0.492716
Ti      13.09652      1.85805     14.44185        -0.276029      0.346034     -0.859046
Ti      12.99665     13.11191      2.10631         1.357857      0.982187     -0.410086
Ti      13.07207     13.17542     14.29798         0.316813     -0.653249      0.076205
Ti       1.85380      1.88129      6.15584         0.908200     -0.413863      0.751312
Ti       1.81234     13.16944      6.19327         0.163718      0.305974     -0.482352
Ti      13.15600      1.82818      6.24891        -0.010004     -0.425411     -0.951529
Ti      13.09242     13.03661      6.20516        -0.376978      0.206737      0.048832
Ti       1.94763      1.80926     10.20595         0.427182     -0.249247     -0.289257
Ti       1.88078     13.09306     10.25692         0.236158      0.266977      0.067790
Ti      13.23949      1.86541     10.14488        -0.531958     -0.115274      0.049564
Ti      13.21424     13.15777     10.31566        -0.742806     -0.803777     -0.409834
Ti       1.75940      5.57295      2.11390         0.213042      0.648834     -0.653561
Ti       1.89566      5.57148     14.37928        -0.204827     -0.024326      0.147189
Ti      13.04992      5.61889      1.95296         0.708218      0.207368      0.305820
Ti      13.12759      5.62537     14.27162         1.178149     -0.150176      1.294450
Ti       1.85022      5.56456      6.13828        -0.441528      0.516668     -0.068997
Ti      13.15727      5.55349      6.08644         0.136234      1.216707      0.870304
Ti       1.88519      5.62131     10.21720        -0.367190      0.668639     -0.402759
Ti      13.12012      5.65418     10.18636         1.231708      0.068414     -0.823619
Ti       1.85610      9.43036      1.99099        -0.543553      0.087299     -0.205390
Ti       1.69461      9.30665     14.38303         0.914828     -0.368757      0.215730
Ti      13.09552      9.35207      1.93313         0.941806     -0.312810      0.954354
Ti      13.07469      9.39274     14.28591         0.348623      0.108555     -0.747378
Ti       1.77762      9.36795      6.20204        -1.200761      0.242429     -0.456314
Ti      12.96821      9.34530      6.06055         1.101660      0.020173      0.626873
Ti       1.74177      9.36901     10.43709         1.491320     -0.263311     -0.992273
Ti      13.10881      9.38184     10.29113        -0.999761      0.039509     -0.493754
Ti       5.65731      1.92037      2.19873        -0.587231     -0.743249     -0.710664
Ti       5.62962      1.93568     14.47036         0.056039     -0.622451     -0.755709
Ti       5.56858     13.16890      1.92394        -0.844026      0.261818      0.729547
Ti       5.60990     13.06685     14.32448         0.086111      0.368600     -0.017673
Ti       5.64968      1.85600      6.28699         0.304488     -0.464823     -0.148001
Ti       5.47083     13.10926      6.11195         0.879252      0.954771      0.311662
Ti       5.75532      1.82091     10.31789        -1.042735     -0.155573      0.230481
Ti       5.62998     13.07255     10.19144         0.058753      1.007104      1.080552
Ti       5.51233      5.62796      2.22431         0.380196     -0.024540     -0.515938
Ti       5.52120      5.54283     14.19808         0.494078      1.334265      0.611453
Ti       5.61601      5.73804      6.21570         1.266620      0.085466      0.096487
Ti       5.55581      5.65687     10.25156         1.509428      0.440194     -0.668116
Ti       5.63891      9.45665      1.91848        -0.490202      0.102099      0.834626
Ti       5.56697      9.27180     14.41078         0.565365     -0.311547     -0.862806
Ti       5.52716      9.49848      6.03117         0.552653     -1.501826      0.394479
Ti       5.59680      9.44193     10.36505        -0.466692     -0.981436     -0.473571
Ti       9.36478      1.83581      1.91064         0.333795      0.730922      0.439994
Ti       9.35160      1.82834     14.37575         0.527574      0.554126      0.026219
Ti       9.29621     13.10002      2.09794         0.679034      0.516425     -0.286670
Ti       9.42987     13.07631     14.32276         0.063196     -0.131357      0.783052
Ti       9.44896      1.77294      6.13017        -0.740138      0.012786      1.208208
Ti       9.24706     13.05235      6.26519         0.771677     -0.045703     -0.015823
Ti       9.48199      1.90777     10.23241         0.021918     -1.332803     -0.686346
Ti       9.37988     13.13184     10.32339         0.104065      0.630618     -0.662685
Ti       9.29068      5.55420      2.07266         0.434685      1.360516      0.581130
Ti       9.44262      5.58373     14.44436        -1.000150      0.217929     -1.190254
Ti       9.33102      5.52955      6.17459        -0.744467      1.785474     -0.268306
Ti       9.38187      5.55315     10.36549        -1.199493      1.346001     -0.673916
Ti       9.41512      9.35436      2.04305        -1.140095     -0.920615      0.421622
Ti       9.36635      9.27626     14.32618        -0.121193      1.169284     -0.015870
Ti       9.18802      9.32201      6.06590         0.888348     -0.065790      0.242649
Ti       9.33335      9.35306     10.30728         0.521090     -1.103435     -0.011319
O       1.66721      1.70316      0.12790         0.708191      0.533797      0.144241
O       1.78185      1.96887     12.34155         0.607985     -0.331773      0.656711
O       1.86054     13.32106      0.13536         0.061612     -0.723114      0.689676
O       1.93527     13.14247     12.49415         0.014256     -0.149854      1.040583
O      13.18513      1.88493      0.12849        -0.155966      0.583329      0.529822
O      13.18063      1.93171     12.45986        -0.184061     -0.039092      0.399410
O      12.91465     13.01819      0.25978         0.200724      0.213811      0.188193
O      13.19797     13.17609     12.44356        -0.369620      0.214240      0.677748
O       1.82019      1.87553      4.31427         0.278922      0.114884     -0.046560
O       1.97108     13.14976      4.28035        -0.195376     -0.035423      0.877473
O      13.06546      1.79104      4.29986         0.537180      0.191981      0.242710
O      13.10409     13.15430      4.34154        -0.001995     -0.144384      0.020279
O       2.03408      1.91672      8.26804        -0.612322     -0.152054      1.575248
O       1.71151     13.15012      8.36018         0.270929     -0.140372      0.718138
O      13.14332      1.76003      8.18824         0.129203      0.522410      2.275919
O      13.26826     13.06934      8.42481        -0.134201      0.462823     -0.182447
O       1.96552      5.66165      0.17596        -0.278533     -0.239370      0.879699
O       1.86620      5.61084     12.42004         0.233328     -0.071299      0.446683
O      13.09114      5.65181      0.09427        -0.057933      0.126323      0.334260
O      13.14831      5.50278     12.41787        -0.055767      0.453523      0.060683
O       1.71247      5.70785      4.25396         0.206374     -0.133529      0.345716
O      13.05620      5.61394      4.26949         0.395228     -0.120378      0.016777
O       1.80926      5.70134      8.26799        -0.097430     -0.424051      0.959662
O      13.16049      5.64692      8.25987        -0.083034     -0.207860      1.459829
O       1.83085      9.39601      0.09022        -0.179098      0.155846      0.971479
O       1.71782      9.32916     12.48340         0.252306     -0.007045      0.679856
O      13.12363      9.41118      0.06893         0.144490     -0.068418      0.787427
O      13.18833      9.35624     12.39179        -0.582647      0.509828      1.126794
O       1.90520      9.46620      4.28402         0.065772     -0.445683      0.219182
O      13.05143      9.38662      4.20223        -0.062902      0.144759      0.489777
O       1.83624      9.34178      8.42705         0.085251      0.537231     -0.109919
O      13.12155      9.41167      8.39457        -0.080769      0.020724      0.317889
O       5.55471      1.98744      0.16546         0.247718     -0.016138      1.332540
O       5.73496      1.95307     12.55522        -0.320388      0.015468     -0.311864
O       5.70621     13.23242      0.09290         0.019079     -0.537723     -0.599798
O       5.54201     13.15317     12.44388         0.006801      0.099513      0.878966
O       5.66493      1.75000      4.27332        -0.227558      0.150738      0.541242
O       5.59388     13.20635      4.26728         0.012642     -0.144906      0.652496
O       5.52334      1.95380      8.35848         0.570911     -0.388750      0.701379
O       5.68725     13.17631      8.37012        -0.190606     -0.579623     -0.106218
O       5.45756      5.62356      0.27625         0.178725     -0.359870      0.890494
O       5.53099      5.55106     12.36954        -0.606791      0.204876      0.400799
O       5.77697      5.72105      4.30786        -0.807765      0.055732      0.581426
O       5.67517      5.64700      8.30382         0.318406     -0.079826      0.681429
O       5.72656      9.20666      0.03268        -0.476693      0.920734      0.933366
O       5.72454      9.33950     12.39533        -0.192440      0.125666      0.939102
O       5.55420      9.46202      4.19770        -0.240981      0.054612      0.181560
O       5.47800      9.41045      8.34856         0.365729      0.600089      0.700838
O       9.45219      1.81230      0.08851        -0.595742      0.429897      1.295056
O       9.31189      1.90643     12.54750         0.351810     -0.128131     -0.279527
O       9.59024     13.14915      0.08935        -1.389782     -0.657505      1.449257
O       9.30270     13.12902     12.33757         0.747205     -0.217560      1.726548
O       9.40556      1.90034      4.32993        -0.284727     -0.166005     -0.433577
O       9.15701     13.01407      4.34626         0.549425      0.229517      0.046890
O       9.45844      1.90372      8.38348         0.030196      0.123444      0.114016
O       9.44262     13.17178      8.37076        -0.735663     -0.279719      0.472651
O       9.40334      5.79159      0.05134        -0.386008     -0.876795      1.315987
O       9.50767      5.76991     12.42891        -0.103564     -0.550218      1.268593
O       9.43857      5.53127      4.22891        -0.459702     -0.030065      0.513727
O       9.22550      5.58250      8.41029         0.631263     -0.018310      0.302512
O       9.37455      9.30856      0.11218        -0.512744     -0.099435      1.033496
O       9.24669      9.23899     12.36149         0.566400      0.562909      1.234154
O       9.31072      9.48134      4.23206         0.177140     -0.043134      0.066228
O       9.40931      9.31281      8.30664        -0.294481      0.140048      0.264786
O       3.60809      2.04205      2.19987         2.117389      0.271026      0.448387
O       3.75165      1.60849     14.48927        -1.130876      0.008986     -0.087136
O       3.80494     12.95079      2.15319        -1.384506      0.088820      0.101380
O       3.73745     13.48171     14.59795         0.124253     -0.529932     -0.437184
O      14.97400      1.58901      2.23437        -0.414857      0.419201      0.498131
O      14.96709      2.23193     14.53384         0.704274     -0.351706     -0.688200
O      14.94708     13.32642      2.28976        -0.263075     -0.484291     -0.233956
O      14.93965     12.98137     14.73152         0.393915     -0.469958     -0.524521
O       3.82886      2.25894      6.29528        -1.292142     -0.403477     -0.097213
O       3.68630     12.81283      6.53374         0.632950     -0.179034     -0.416098
O       0.06181      1.39933      6.31586        -0.853580      0.684038      0.031333
O      14.96948     13.48837      6.23909         0.399234      0.279092      0.443533
O       3.79998      2.23832     10.48645        -0.322026     -0.811726     -0.342680
O       3.76884     12.83520     10.31741        -0.497627      0.014114      0.137506
O       0.06751      1.58026     10.45042         0.007157      0.607790     -0.771184
O       0.04917     13.43936     10.58101         0.042352     -0.390783     -0.481650
O       3.66940      5.42107      2.51489         0.015798      0.299685     -0.781114
O       3.67822      5.96476     14.51616         0.573706     -0.132336     -0.138429
O      14.96125      6.04071      2.13531         0.142517     -0.597507      0.319926
O      14.99600      5.27617     14.54818        -0.412270      0.500267     -0.466491
O       3.77535      5.34045      6.38637        -0.888311      0.120066     -0.579415
O      14.97981      6.04173      6.36458        -0.077048     -0.764179     -0.526769
O       3.74818      5.32137     10.25336        -0.171922      0.425828      0.729625
O       0.02542      5.91848     10.38204        -0.327161     -0.591934     -0.286789
O       3.75588      9.72755      2.02213         0.027640     -0.592271      0.573910
O       3.67316      9.10115     14.52870         0.173934      0.261676     -0.091857
O      15.00022      9.19591      2.32038        -0.265894      0.055715     -0.564896
O      14.95858      9.83393     14.61608        -0.157115     -0.224083     -0.237834
O       3.67388      9.67434      6.36089        -0.002300      0.523347     -0.208588
O      14.92968      9.06913      6.24038         0.789371      0.362077      0.410046
O       3.74797      9.63477     10.64943        -0.495668      0.204050     -0.459010
O      14.95250      9.23152     10.50015         0.620002     -0.277779     -0.282157
O       7.45290      1.87889      2.22382         1.300327     -0.217192     -0.225848
O       7.50500      2.09587     14.71671        -0.432907      0.368690     -0.074530
O       7.48223     13.26929      2.25984         1.203526      0.006597     -0.038355
O       7.52630     13.02720     14.36852        -0.419942     -0.456254      0.408334
O       7.49492      1.46677      6.42049         0.763967      0.729289     -0.277378
O       7.41739     13.48847      6.42496         0.252287     -0.248635     -0.439883
O       7.58872      1.71073     10.32739        -1.092926      0.012695      0.332445
O       7.51301     13.41025     10.40589         0.196774     -0.024520      0.058436
O       7.44678      5.80848      2.17030         0.239751      0.140435     -0.109382
O       7.43006      5.40271     14.33654         0.477973     -0.127471      0.581642
O       7.53073      6.11910      6.33946        -0.279168     -0.609560     -0.115504
O       7.53889      5.79987     10.73794        -0.352956     -0.099428     -1.209580
O       7.45302      9.22665      2.23920         0.698212     -0.017672     -0.569841
O       7.48107      9.56380     14.52488         0.142519      0.220640     -0.119924
O       7.37593      8.98544      6.25333         0.304060      0.167846      0.304181
O       7.49622      9.37091     10.26192        -0.435618     -0.694648      0.131569
O      11.23343      2.16566      2.21631        -0.630177     -0.051907     -0.064536
O      11.23691      1.73396     14.60887         0.065252     -0.108441     -0.461710
O      11.20535     13.02972      2.60889        -1.092178     -0.007999     -1.132052
O      11.25482     13.45999     14.47466        -0.610537     -0.066809     -0.570154
O      11.25840      2.19586      6.27802        -0.187486      0.139104      0.260136
O      11.20370     12.79845      6.39533        -0.117698     -0.240768     -0.340256
O      11.34300      2.06820     10.46117         0.380826      0.394722      0.058950
O      11.28372     13.12909     10.45306         0.211427     -1.016924      0.221682
O      11.25061      5.41627      2.19629        -0.854779     -0.246024     -0.182389
O      11.24075      5.97044     14.48174         0.594339     -0.148955      0.064153
O      11.24000      5.30252      6.36385        -0.023373      0.006031     -0.124348
O      11.30817      5.47940     10.50621        -0.515475     -0.489523     -0.383817
O      11.24245      9.49033      2.12744        -0.264778      0.541653      0.194978
O      11.22018      9.16796     14.59250         0.224423     -0.346298     -0.487731
O      11.23412      9.77163      6.29321        -1.309945      0.110560      0.157132
O      11.19714      9.57852     10.41078         0.940790      0.337319      0.359143
O       1.41516      3.76080      2.19347         0.695579     -0.147180     -0.088027
O       2.08934      3.70425     14.56099         0.358027      0.246304      0.105406
O       1.95504     14.97056      2.38005         0.575921      0.954841     -0.198709
O       1.54344      0.01050     14.42111         0.312958      0.457046     -0.106117
O      13.40069      3.76956      2.28298        -0.114409      0.336942     -0.289891
O      12.84181      3.79054     14.55535        -0.185508      0.400222     -0.148845
O      12.86082      0.05177      2.19303        -0.219709     -1.008596      0.216982
O      13.37127      0.05039     14.58429        -0.094163     -0.618854     -0.398255
O       1.47021      3.75529      6.26626         0.298620      0.135438      0.180615
O       2.31288      0.01167      6.36230        -0.433598      0.101121     -0.268520
O      13.40945      3.68126      6.38034         0.247385      0.794840     -0.111886
O      12.73084     14.97473      6.37012         0.431479     -0.097954     -0.243099
O       1.65738      3.76895     10.32964        -0.225725     -0.437118      0.007260
O       2.19812     14.96415     10.53921        -0.075662      0.941913     -0.456632
O      13.41039      3.73625     10.33395        -0.063204      0.237173     -0.086636
O      12.99096      0.04213     10.42415        -0.047486      0.105041      0.065507
O       2.09579      7.56965      2.12455         0.184354     -0.404875      0.621787
O       1.42014      7.46075     14.59030         0.293632      0.535695     -0.545151
O      12.82875      7.49230      2.22930         0.492147      0.315821     -0.242296
O      13.52184      7.58503     14.34307        -0.511774     -1.436978      0.517056
O       2.10597      7.54635      6.31283         0.150728     -0.608534     -0.417686
O      12.74704      7.52227      6.22423         0.126705     -0.788524      0.204583
O       2.11502      7.55246     10.46663         0.032339     -1.043830      0.046465
O      12.94634      7.49184     10.42258        -0.062138     -0.173388     -0.012765
O       1.69869     11.27255      2.33768        -0.105595      0.412036     -0.269558
O       2.14155     11.25995     14.61932        -0.467482     -0.050420     -0.636754
O      13.24518     11.21093      2.27096        -0.202754      0.583365      0.011697
O      12.77720     11.29920     14.45422         0.116978      0.228106      0.050920
O       1.50342     11.33055      6.30468         0.300181     -1.135460      0.151773
O      13.50085     11.27068      6.32408        -0.178374     -0.728781     -0.118647
O       1.64920     11.25748     10.62265         0.068763      0.340697     -0.697325
O      13.33377     11.29355     10.52704        -0.079025     -0.048112     -0.011380
O       5.77069      3.81130      2.70103        -0.732846     -0.574849     -1.722118
O       5.24682      3.78563     14.69098         0.293619     -0.054239     -0.469878
O       5.60983      0.02665      2.18808        -0.523765      0.824509      0.023301
O       5.84639      0.02126     14.60141        -0.115752     -0.055728     -0.338807
O       5.97817      3.74231      6.19140         0.010707      0.726052      0.195204
O       5.30103      0.00274      6.45573        -0.161739     -0.474684     -0.518263
O       5.87103      3.80500     10.47101         0.044955     -0.988728     -0.312027
O       5.37969     15.00501     10.44482         0.188420      0.751856     -0.007088
O       5.40484      7.57924      2.28193        -0.277650     -0.617781      0.054539
O       5.81135      7.42980     14.40559         0.121656      0.041492      0.237227
O       5.17439      7.58823      6.27035         0.574916     -0.631879     -0.405513
O       5.40119      7.54193     10.38457         0.224095     -0.728633      0.094915
O       5.87514     11.34157      2.01921         0.288614     -1.501795      0.130582
O       5.38407     11.19580     14.46468         0.039106      0.970834      0.236273
O       5.98764     11.29118      6.26282        -0.367721      0.128520      0.264236
O       5.91834     11.30332     10.55052        -0.275154     -0.198528     -0.185989
O       9.16861      3.76863      2.13366         0.030337     -0.556330     -0.070003
O       9.50147      3.76576     14.76137         0.293398      0.640056     -0.576825
O       9.51037      0.02194      2.11531        -0.108471     -0.757338      0.593186
O       9.17394     15.00706     14.54006        -0.266894     -0.590489     -0.220479
O       8.98156      3.77563      6.38844         0.415078     -1.400686     -0.326668
O       9.68071     14.94349      6.39808        -0.144013      0.497427     -0.420806
O       9.22040      3.72376     10.60354         0.294278      0.394437     -0.299470
O       9.68522      0.06703     10.51447        -0.711416     -0.453487     -0.047710
O       9.57786      7.47240      2.29206        -0.429607      0.147689     -0.476480
O       9.07780      7.51632     14.63251         0.010508     -1.027096     -0.610743
O       9.78602      7.51146      6.18610        -0.647564     -0.034926      0.531588
O       9.55355      7.49778     10.30116         0.042276     -0.369960      0.240123
O       9.22452     11.20475      2.05229        -0.172203      1.417025      0.258592
O       9.53577     11.21107     14.61244         0.224024      0.798563     -0.757430
O       8.88759     11.17567      6.44249         0.579376      0.882182     -0.362046
O       9.23702     11.24724     10.46605         0.097438      1.092938     -0.101651
