  # total energy = -7877.04675691 
CRSYTAL
PRIMVEC
    15.2000000000000000    0.0000000000000000    0.0000000000000000
     0.0000000000000000   15.2000000000000000    0.0000000000000000
     0.0000000000000000    0.0000000000000000    17.000000000000000
PRESSURE
8.0463 7.9861 5.82936 0.043923 0.047596 0.056229
PRIMCOORD
320 1
Pb       3.92501      3.68265      4.17747        -0.300884     -0.130817     -0.153001
Pb       3.57910      3.64647     16.89248         0.577385     -0.055152      0.508350
Pb       4.01599     14.92403      4.09790        -0.845998      1.175496     -0.028727
Pb       3.64344     15.12817     16.91987        -0.050023      0.483999      0.382747
Pb      15.17577      3.53394      4.22956         0.363087      0.796909     -0.080482
Pb      15.06803      3.92457     16.97075        -0.111412     -0.918433     -0.442781
Pb      15.13644     14.87878      4.13922         0.558124      1.334377      0.485467
Pb      15.07310      0.01857      0.09194         0.219602      0.243915     -0.552584
Pb       3.46876      3.92046      8.52579         0.491099     -0.825618      0.146608
Pb       3.79912      0.11296      8.26688        -0.219086     -0.177212      0.633331
Pb      15.11586      3.82447      8.36593         0.621878     -0.361223      0.696843
Pb       0.13782      0.12343      8.23050        -0.067664     -0.353842      1.336638
Pb       3.73668      3.76878     12.76531         0.097684      0.417884     -0.061151
Pb       3.79120      0.02149     12.71453        -0.560764     -0.088627     -0.203412
Pb      15.07048      3.90207     12.78158         0.227280     -0.350287      0.018066
Pb      15.04576     15.16453     12.64201         0.634267      0.416718      0.175633
Pb       3.90791      7.42763      4.14435        -0.338556      0.376046     -0.187877
Pb       3.62380      7.46739     16.89199         0.406169      0.648099      0.232353
Pb       0.00076      7.37825      4.26820        -0.094049      1.167152     -0.005486
Pb      15.06000      7.51569      0.19500         0.388470      0.539825     -0.979095
Pb       3.77899      7.49146      8.58817         0.406464      0.838316     -0.162232
Pb       0.08934      7.68613      8.47238        -0.355838      0.028089      0.277938
Pb       3.77184      7.76804     12.88859         0.504420     -0.297718     -0.705127
Pb      15.17829      7.78452     12.90615         0.133243     -0.766168     -0.743409
Pb       4.10905     11.29712      4.13627        -1.105330     -0.794521     -0.282087
Pb       3.64982     11.39047     16.68868         0.112338      0.166406      1.335995
Pb       0.10942     11.24280      4.23701        -0.122455     -0.554162     -0.562602
Pb      15.01720     11.35529      0.01117         0.907736      0.138659      0.039312
Pb       3.81544     11.41252      8.41401         0.065234     -0.305009      0.152975
Pb       0.17718     11.39958      8.38622        -0.641274     -0.439347     -0.290955
Pb       3.91001     11.60504     12.62441        -0.207639     -1.271775      1.174371
Pb       0.03425     11.59930     12.71191        -0.050981     -0.287401      0.495157
Pb       7.62384      3.87460      4.36073        -0.282289     -0.224066     -0.298568
Pb       7.57064      3.78072     16.91345        -0.054710     -0.322782      0.285361
Pb       7.58278     15.18220      4.24429         0.207741      0.278182     -0.318304
Pb       7.49899     15.18894     16.88839         0.602797      0.350945      0.428032
Pb       7.29197      3.75885      8.71232         0.905718     -0.311021     -0.375479
Pb       7.52866      0.06127      8.64089         0.229766     -0.110812     -0.342544
Pb       7.63893      3.71728     12.69067        -0.098907      0.597168      0.085618
Pb       7.52088     15.05342     12.73867         0.448994      0.639911     -0.307566
Pb       7.41567      7.52142      4.14272         0.801079      0.253789      0.205574
Pb       7.77552      7.46019      0.03087        -0.385308      0.281602     -0.396727
Pb       7.53158      7.49686      8.62162        -0.102040      0.541109     -0.927653
Pb       7.67787      7.63179     12.74301        -0.660254     -0.284648      0.368920
Pb       7.65698     11.50781      4.24717         0.383224     -0.686234     -0.245740
Pb       7.41236     11.30990     16.98676         0.769188      0.320724     -0.641212
Pb       7.67122     11.27967      8.56018        -0.012172      0.191916     -0.693514
Pb       7.73585     11.52440     12.78748        -0.979115     -0.732870      0.380510
Pb      11.28870      3.80431      4.39417         0.120843     -0.332246     -0.111758
Pb      11.31439      3.89025     16.91918         0.531355     -0.516102      0.455294
Pb      11.28697     15.17117      4.29116        -0.197643      0.032394     -0.493193
Pb      11.28520      0.12691      0.06501        -0.040929     -0.170138     -0.098168
Pb      11.33397      3.80087      8.48918         0.218378      0.173500      0.108841
Pb      11.50893     15.14530      8.61959        -0.361835      0.254472     -0.375895
Pb      11.45281      3.79974     12.59195        -0.070142      0.172833      0.588867
Pb      11.36526      0.01798     12.65843        -0.168063     -0.195664      0.062666
Pb      11.28823      7.36648      4.33122         0.069450      0.919406      0.105213
Pb      11.44804      7.65502      0.10221        -0.232838     -0.372052     -0.312107
Pb      11.50150      7.65380      8.51082        -0.222188     -0.081857     -0.233640
Pb      11.55680      7.77851     12.77814        -0.428361     -0.602752     -0.818273
Pb      11.40540     11.49864      4.28685        -0.610785     -0.574536     -0.103086
Pb      11.34775     11.22281      0.10722        -0.162203      1.125578     -0.606451
Pb      11.45540     11.31472      8.37781        -0.102651      0.090602      0.206697
Pb      11.49810     11.38745     12.79206        -0.393153      0.543309     -0.485301
Ti       1.87536      1.81417      2.26651         0.462547     -0.345178     -0.270616
Ti       1.83860      1.89582     14.93143        -0.999551     -0.598272      0.648709
Ti       1.84574     13.15749      2.22336         0.143553     -0.284048      0.080055
Ti       1.79317     13.39552     14.95718        -1.008265     -0.540653      1.701576
Ti      13.23382      1.85988      2.27571        -0.351352      0.141548     -0.455863
Ti      13.18238      1.87669     15.00856         1.245444      0.193631     -0.006513
Ti      13.16021     13.26634      2.29697        -0.302675     -0.539811     -0.070660
Ti      13.14462     13.30057     15.06108         1.121361      0.549407      0.061537
Ti       1.92051      1.93282      6.35207         0.491686      0.325197      0.215589
Ti       1.90554     13.19841      6.32616         0.734016      0.642659      0.871351
Ti      13.32634      1.86442      6.33931        -0.379584     -0.098566      1.462633
Ti      13.33515     13.31641      6.51135        -0.416340     -0.579015      0.449873
Ti       1.87597      1.95009     10.76576         0.349270     -1.042516     -0.384244
Ti       1.90476     13.31214     10.56736        -0.543148      1.213051      0.059425
Ti      13.31995      1.86314     10.63954         0.305724      0.675967      1.548572
Ti      13.28926     13.26588     10.61267        -0.564910      0.678317     -0.280855
Ti       1.87837      5.61989      2.19560         0.108670     -0.449370      1.180076
Ti       1.91171      5.68438     14.96532        -1.791639      0.722185     -0.661682
Ti      13.31842      5.61443      2.33579        -0.676408      0.235253      0.426908
Ti      13.21193      5.78512     14.96164         1.435643     -0.957490     -0.298991
Ti       1.87492      5.80654      6.42690        -0.468665     -1.755284     -0.216734
Ti      13.36506      5.68628      6.54462        -0.648950      0.569660      0.402754
Ti       1.84021      5.77723     10.88089         0.324910     -0.003934      0.954077
Ti      13.31623      5.73007     10.65903        -0.323977     -0.337304      1.598709
Ti       1.93818      9.35502      2.22046        -0.155182      1.372409      0.055379
Ti       1.85112      9.53138     14.93513        -0.084243      0.627626      1.276924
Ti      13.21147      9.44666      2.27876         1.015184     -0.090261      1.707774
Ti      13.29947      9.54758     14.97638         0.199038     -0.026239     -0.513262
Ti       2.02928      9.43837      6.35462        -0.231164      0.978823      0.030836
Ti      13.35938      9.46252      6.42731         0.552849      0.120238      1.522287
Ti       1.85411      9.55891     10.73825         1.497588     -0.281342      0.674188
Ti      13.39935      9.58024     10.69118        -0.898904     -0.622365     -0.311064
Ti       5.70288      1.81027      2.08459         0.124653      0.551047      1.449646
Ti       5.68223      1.94663     14.85613        -0.531809     -0.195552      0.654007
Ti       5.62336     13.16822      1.99043         0.696114      0.379958      0.007258
Ti       5.65313     13.39386     15.04531        -0.572023     -1.751441     -0.811404
Ti       5.75646      1.90542      6.52472         0.110998     -0.691897      0.261915
Ti       5.73612     13.24460      6.48789         0.437847      0.263302      1.689875
Ti       5.69693      1.88424     10.87175        -0.111728     -0.286588     -0.297515
Ti       5.65779     13.25515     10.61764         0.350998      0.721466     -0.346529
Ti       5.68161      5.58624      2.03560         0.062542     -0.391104      2.939294
Ti       5.69625      5.65185     14.97869        -0.832881      0.475265     -0.687849
Ti       5.66266      5.58448      6.64287         0.010395      1.558563     -0.483239
Ti       5.64220      5.67651     10.80641        -0.399386      0.970870      1.418395
Ti       5.73982      9.39730      1.96814        -0.906894      0.308938     -0.022027
Ti       5.72150      9.43973     15.01676        -0.090841      0.156323      0.360456
Ti       5.77152      9.50907      6.54279        -0.676766     -1.622896      0.728649
Ti       5.72423      9.45345     10.74174        -0.837353     -0.211847      1.907270
Ti       9.42800      1.95629      2.29762        -0.000019     -0.691190      0.968435
Ti       9.45047      1.92088     14.93145         0.861864     -0.595690     -0.709033
Ti       9.35762     13.26596      2.15153         0.750792      0.576393     -0.060729
Ti       9.44098     13.23816     15.02858         0.574488     -0.441434      1.044346
Ti       9.56364      1.87853      6.62128        -1.079256     -0.137430      1.072583
Ti       9.51055     13.32297      6.63671        -1.093094     -0.167818     -0.398424
Ti       9.51262      2.05349     10.73101         0.099288     -2.492154      0.343838
Ti       9.42419     13.33004     10.70448         1.881420      0.135356      0.899878
Ti       9.53869      5.65401      2.30986        -1.193143      0.512566      0.751913
Ti       9.55395      5.64171     14.87941        -1.276309      0.896579      0.489965
Ti       9.45306      5.69621      6.69986        -0.068807      0.432577     -0.954424
Ti       9.46643      5.80570     10.68594         0.944609     -1.041351      0.867891
Ti       9.49379      9.47083      2.13607        -0.712011     -0.265579      2.376375
Ti       9.49414      9.39763     15.02754         0.117896      1.983602      1.284337
Ti       9.52776      9.43886      6.36785        -0.753587     -0.358744      1.443908
Ti       9.47999      9.48036     10.75778         1.093097      0.460804      1.161720
O       1.91721      1.67376      0.47096         0.148121      0.821433      0.147216
O       1.90590      1.77017     13.20665        -0.224717      0.213462     -0.760795
O       1.90138     13.28194      0.47272        -0.243782      0.042646     -0.244991
O       1.81586     13.34528     13.24961        -0.303283      0.018131     -1.907837
O      13.22637      1.94691      0.47939        -0.343790     -0.255604      0.242167
O      13.17990      1.79743     13.22056         0.118129      0.107240      0.427698
O      13.22942     13.18288      0.56786        -0.249519      0.385296     -0.999254
O      13.17438     13.32738     13.28218         0.208586     -0.082940     -0.482666
O       1.85608      1.93921      4.60735         0.099468     -0.168912     -0.711408
O       1.79900     13.10048      4.57429         0.580825      0.571570     -0.465951
O      13.20904      1.76426      4.60200         0.464209      0.206258     -0.679140
O      13.04936     13.18834      4.75267         0.862675      0.949442     -0.537908
O       1.99108      1.95564      8.95841        -0.208907      0.043283     -0.064622
O       2.02691     13.23262      8.76409        -0.505162      0.211217      1.262629
O      13.22618      1.96545      8.92577         0.023232      0.011545     -1.092509
O      13.23855     13.25737      8.84195         0.360539     -0.057432     -0.032399
O       1.88578      5.60453      0.42704        -0.481548      0.526778     -0.474708
O       1.76721      5.78619     13.18302         0.367660     -0.312427      0.281266
O      13.23129      5.64352      0.54525         0.206847      0.338203     -0.020346
O      13.30676      5.72919     13.17076        -0.253301      0.150230      0.961518
O       1.82985      5.67132      4.66359         0.484169      0.198337      0.348424
O      13.39714      5.79798      4.78958        -0.423017     -0.526173     -0.595196
O       1.89682      5.67286      9.10670        -0.019443      0.201036     -0.526928
O      13.48416      5.62331      8.93442        -0.599337      0.012922     -1.081882
O       1.82146      9.49346      0.46790         0.179216     -0.633415     -1.142823
O       1.68392      9.53251     13.18412         0.493454      0.234302     -0.225397
O      13.16689      9.46796      0.49924         0.314656     -0.236088     -0.184403
O      13.29588      9.58990     13.11880         0.073488     -0.489456      0.784170
O       2.02694      9.41835      4.57839         0.061785      0.050224      0.528072
O      13.48144      9.43635      4.73007        -0.617571      0.071175     -1.576718
O       1.84939      9.56811      8.98458         0.228145      0.167412     -0.538542
O      13.41993      9.61913      8.88191        -0.166371     -0.141693      0.892578
O       5.68860      1.90884      0.36114         0.069361     -0.260119     -0.942588
O       5.65814      1.99689     13.05779         0.366916     -0.359122      0.696483
O       5.49355     13.24425      0.21308         0.673467      0.152149      0.545266
O       5.73453     13.35139     13.23860        -0.026198     -0.135710     -0.300827
O       5.77986      1.96404      4.77804         0.107715     -0.287314     -0.608541
O       5.71533     13.25137      4.70111         0.356099     -0.255812     -0.456513
O       5.80171      1.89981      9.10032        -0.389684     -0.209791     -0.945039
O       5.69858     13.29624      8.82249        -0.422005     -0.197138      1.388141
O       5.76502      5.55615      0.36203        -0.200478      0.364486     -2.077662
O       5.55726      5.56774     13.20425         0.436872      0.333849      0.383991
O       5.68502      5.50957      4.86529        -0.228252      0.221836     -0.561624
O       5.57815      5.74153      9.02824         0.121662     -0.148244     -1.063304
O       5.82435      9.48972      0.19909        -0.639897     -0.607501      0.415822
O       5.73814      9.26230     13.27852         0.015622      0.407197     -1.008339
O       5.76593      9.56814      4.80014        -0.057875     -0.156211     -1.482657
O       5.73109      9.41284      9.02824         0.000861      0.194782     -1.450358
O       9.40588      1.97330      0.58861         0.278616      0.252211     -2.328148
O       9.50479      1.97842     13.15821         0.103419     -0.081307      0.245257
O       9.42126     13.28976      0.39683         0.148330      0.062249      0.030589
O       9.43021     13.26479     13.23445        -0.226741      0.179450      0.357685
O       9.47166      1.87233      4.86514        -0.231560     -0.104618     -0.956756
O       9.40350     13.24819      4.79866        -0.049813      0.276500      0.426600
O       9.55183      1.93092      8.97506         0.279264      0.118180     -0.467957
O       9.46280     13.20683      8.97628         0.123542     -0.131966     -1.129102
O       9.52374      5.69602      0.57112         0.000700     -0.230676     -1.549401
O       9.49524      5.71506     13.17007         0.221697     -0.145084     -0.768750
O       9.41384      5.72906      4.84315         0.224879     -0.211129      0.390673
O       9.48241      5.73307      8.93963        -0.024565      0.129228     -1.152272
O       9.66120      9.46500      0.38247        -0.609936     -0.402594     -0.457668
O       9.52559      9.33184     13.31371         0.193151      0.481142     -2.378893
O       9.31684      9.43155      4.65152         0.033087     -0.094796     -0.398369
O       9.58904      9.50329      9.02711        -0.419626      0.003476     -0.193398
O       3.86842      1.76799      2.62487        -0.490181     -0.323837     -0.040787
O       3.75172      1.80515     15.25483         0.520384      0.706191      0.050990
O       3.82192     13.17483      2.53223        -0.040969      0.339313      0.154549
O       3.70216     13.30645     15.19976         0.384378     -0.050712      0.224941
O      15.17648      1.81733      2.42084        -0.121516     -0.019832      0.920531
O      15.11384      1.86875     15.29609         0.100079     -0.166155      0.311853
O      15.11871     13.22253      2.65037        -0.076829     -0.644986     -0.515643
O      15.05588     13.54039     15.43771         0.388396     -1.055870     -0.350493
O       3.81978      1.99496      6.77548        -0.600821     -0.725988      0.047033
O       3.75930     13.23073      6.79784         1.146243      0.471501     -0.581728
O       0.01903      1.94188      6.76542        -0.206342     -0.247317     -0.155088
O       0.09336     13.35175      6.72889        -1.402499     -0.318558      0.081221
O       3.85569      1.84621     11.09268        -1.011245      0.581473      0.305332
O       3.73179     13.31068     11.15749         0.480188     -0.227771     -0.922163
O       0.02274      1.78196     11.00808        -1.240055      0.584202      0.202574
O       0.01303     13.38442     11.02430        -0.307991     -0.255104     -0.127149
O       3.72214      5.60187      2.50929         1.675282      0.454445      0.202242
O       3.68584      5.50934     15.40227         1.008543      0.513311     -0.094823
O      15.17163      5.56558      2.77365         0.254368      0.377866     -1.161425
O      15.14447      5.77580     15.45888        -0.266404      0.172089     -0.139855
O       3.69175      5.82073      6.91697         0.643192     -0.805122     -0.063173
O       0.02427      5.72166      7.01803         0.614278      0.118231     -0.759722
O       3.76740      5.61520     11.22906        -0.226575      0.206171     -0.382112
O      15.18174      5.65721     11.21040         0.228311     -0.045267     -0.279031
O       3.86422      9.47863      2.46375         0.466706     -0.429209      0.351506
O       3.77314      9.64528     15.25145        -1.477366     -0.887320     -0.436417
O      15.19546      9.37864      2.54010        -1.037993      0.182121      0.043000
O      15.13824      9.46138     15.38075         0.299401     -0.370576      0.173878
O       3.87039      9.53050      6.94974        -0.985223     -0.419818     -0.324062
O       0.07768      9.48072      6.85317         0.297603      0.731735     -0.259184
O       3.85594      9.57121     11.15437        -1.375513      0.273555      0.064482
O       0.00117      9.35770     11.08855        -0.556987      0.808238      0.016544
O       7.56471      1.95281      2.54031        -0.505615      0.087444      0.695592
O       7.59465      1.92252     15.23532        -0.770256     -0.046987      0.231218
O       7.51367     13.13392      2.46572         0.220208      0.095373      0.266784
O       7.50909     13.31541     15.46123         0.851027     -0.108257     -0.535464
O       7.61092      1.88783      7.02975        -0.134023      0.537772     -0.240218
O       7.61762     13.18652      6.99098        -0.266244     -0.134703     -0.572782
O       7.64602      1.80209     11.11917        -0.170330      0.336956      0.205896
O       7.56531     13.40985     11.01995        -0.734592     -0.581252      0.296790
O       7.58554      5.60908      2.56478        -0.943116     -0.157645      0.057680
O       7.54643      5.73825     15.21670         0.844986      0.224028      0.557267
O       7.55982      5.66140      6.93929        -0.117519     -0.328189      0.327785
O       7.60307      5.77557     11.08617        -0.526914      0.026672     -0.055724
O       7.54013      9.38822      2.42752         0.916501      0.219699      0.049646
O       7.62513      9.34806     15.33492        -0.487536     -0.218113      0.186186
O       7.54895      9.40947      6.98843         2.006609      0.446723      0.032093
O       7.60484      9.38539     11.14738         0.689592      0.313680     -0.209664
O      11.31321      1.79868      2.62057         0.562453      0.358071      0.263084
O      11.33007      2.06276     15.40863        -0.458843     -0.625114      0.111014
O      11.23738     13.30092      2.70024         0.491982     -0.010687     -0.223154
O      11.32621     13.06827     15.38509        -0.816527      0.818706      0.053873
O      11.46774      1.77683      6.75230        -0.412842      0.354692      0.483724
O      11.36284     13.33971      6.92892         0.735001      0.177239     -0.146345
O      11.43140      1.90537     11.15658        -0.572719      0.247693     -0.538328
O      11.37095     13.18164     10.99798         0.474466      0.369133      0.217231
O      11.37098      5.60886      2.79427         0.896259      0.114673     -0.216873
O      11.35544      5.67657     15.28834         0.442945      0.033781      0.309936
O      11.44477      5.78774      6.88319         0.206204     -0.444167      0.115927
O      11.40207      5.71982     10.85441         0.162330     -0.719389      0.531308
O      11.29968      9.36767      2.62516         0.972017     -0.147566     -0.050118
O      11.47726      9.60156     15.34104        -1.103805     -0.464373      0.016010
O      11.43405      9.38452      6.76802         0.285015      0.072828     -0.059912
O      11.47193      9.44076     10.98561        -0.323950      0.508928      0.630390
O       1.94302      3.73982      2.52933        -0.342835     -0.562282      0.043238
O       1.74557      3.83553     15.28653         0.149310     -1.422221      0.094593
O       1.87219     15.08471      2.56884         0.109482     -0.213055      0.568909
O       1.90120      0.01574     15.42517        -0.471669      0.250576     -0.279219
O      13.31762      3.73800      2.63405        -0.532150      0.059405      0.342220
O      13.24947      3.84634     15.37876         0.184645      0.268395     -0.182539
O      13.19479     15.13887      2.60686         0.270310      0.045238      0.098211
O      13.13820     15.19803     15.48526        -0.823810      0.361521     -0.053970
O       1.76501      3.83477      6.78034         0.852812      0.307070      0.215486
O       1.85899      0.05049      6.70311         0.845029     -0.582355     -0.169664
O      13.37618      3.75441      6.70652        -0.436601      0.281241      0.148442
O      13.41310      0.02292      6.91814        -0.489034     -0.427021     -0.507843
O       1.93503      3.74976     11.26208        -0.563815      0.773409     -0.382325
O       1.87202      0.03800     11.07089         0.601535     -1.410541     -0.168925
O      13.27869      3.74420     11.24752         0.571484      0.384372     -1.021913
O      13.20990     15.17216     10.93755        -0.070090     -0.139328      0.393399
O       1.94767      7.51720      2.61181        -0.186887     -0.953687     -0.215777
O       1.93010      7.63761     15.21451         0.138433     -0.183575      0.527714
O      13.24678      7.51504      2.74109         0.077448      0.081531     -0.817363
O      13.21147      7.63829     15.49065         0.073839     -0.386347     -0.465241
O       1.87978      7.65452      6.79979         0.085243     -0.682218      0.336199
O      13.52022      7.59302      6.90885        -1.034454      0.197064     -0.027850
O       1.88969      7.70755     11.11783         0.325118     -1.400529      0.089882
O      13.30079      7.53257     11.04934         0.124113      1.581686     -0.012268
O       1.89603     11.23585      2.55224        -0.244201      1.676887      0.285117
O       1.63741     11.48446     15.41267         0.409235     -0.660603     -0.596918
O      13.13620     11.34798      2.58666         0.215205     -0.581358      0.358250
O      13.26113     11.37638     15.38312         0.794042      0.434568      0.086321
O       1.91707     11.34319      6.69914        -0.083686      0.198070      0.241069
O      13.31689     11.45593      6.74033         0.036012     -0.831425      0.335557
O       1.73042     11.42715     11.11622         0.609528      0.810638     -0.409179
O      13.34232     11.48072     11.14103         0.317658     -1.526581     -0.177048
O       5.61149      3.71252      2.51161         0.192092      0.716620     -0.038214
O       5.63645      3.73950     15.39334         0.191838      0.175114     -0.349073
O       5.87720     15.06983      2.49243        -0.844354      0.115287      0.079481
O       5.71786      0.04053     15.24415        -0.128730      0.590716      0.107597
O       5.61132      3.71171      7.01958         0.317243      1.358719      0.172098
O       5.81271     15.15889      6.84456        -0.662400     -0.003315     -0.190851
O       5.80447      3.82877     11.08331        -0.056167     -0.678456     -0.042513
O       5.60621     15.14302     11.07069         0.494835     -0.395410      0.154199
O       5.69646      7.54156      2.43940        -0.371054     -0.992265      0.174031
O       5.38259      7.52251     15.34176         0.539545     -0.482092     -0.065162
O       5.73951      7.52777      6.84560        -0.472245      0.061902      0.403247
O       5.57295      7.59028     11.12377         0.319110     -0.373752      0.043020
O       5.74875     11.30472      2.30384        -0.314018      0.395212      0.633326
O       5.63922     11.35038     15.18866         0.739592      0.735372      0.388015
O       5.72514     11.37683      6.92473        -0.022907      0.466800     -0.152599
O       5.74147     11.39181     11.13136         0.205572      0.866335     -0.285618
O       9.50343      3.83253      2.87387         0.031772     -0.844146     -0.448083
O       9.40798      3.80267     15.33641         0.104741      0.633027      0.103965
O       9.33528      0.00141      2.51169         0.041163     -0.651802      0.643019
O       9.50969      0.03549     15.32986         0.027405     -0.520680      0.175529
O       9.52280      3.79755      6.96253         0.466536     -0.323084     -0.260761
O       9.38316     15.19508      7.06355         0.612943     -0.408825     -0.597120
O       9.43894      3.85151     11.00498         0.195047      0.519610      0.416840
O       9.55531      0.01926     11.14213        -0.137795     -0.561562     -0.412822
O       9.38148      7.53170      2.61783         0.419082      0.234383     -0.066025
O       9.62916      7.62845     15.40236        -0.205641     -2.527120      0.490621
O       9.50843      7.57402      6.96163        -0.157893      0.548089      0.004104
O       9.58849      7.55858     11.21713        -0.177863      1.834633     -0.282956
O       9.52243     11.32138      2.61425        -0.467965      0.324744     -0.333712
O       9.37285     11.33057     15.44872        -0.122502      0.656392     -0.574090
O       9.58661     11.27843      6.82487        -0.440037      0.721765      0.164446
O       9.44698     11.43643     11.32643         0.108383     -1.172261     -1.164090
