  # total energy = -7878.11854041 
CRSYTAL
PRIMVEC
    15.2000000000000000    0.0000000000000000    0.0000000000000000
     0.0000000000000000   15.2000000000000000    0.0000000000000000
     0.0000000000000000    0.0000000000000000    17.000000000000000
PRESSURE
7.98467 7.6022 4.25905 -0.062607 -0.067258 -0.003646
PRIMCOORD
320 1
Pb       3.67274      3.94661      4.39007         0.292646     -0.320729     -0.574600
Pb       3.76188      3.85838      0.07193         0.135448     -0.047679     -0.523654
Pb       3.71241      0.10764      4.35084         0.286648      0.307573     -0.774218
Pb       3.99583     15.18990      0.07538        -0.541502     -0.351633     -0.194056
Pb      15.15293      4.05140      4.34767         0.423901     -0.955544     -0.686992
Pb      15.16456      3.80292     16.89021         0.158800     -0.414803      0.153117
Pb       0.04181      0.14148      4.21571        -0.445000      0.160473     -0.234664
Pb       0.14479     15.18039     16.88034        -0.742184      0.180689     -0.097161
Pb       3.88234      3.64181      8.51606        -0.399597      0.312845     -0.826821
Pb       3.79945     15.13175      8.38646         0.014050      0.525440      0.305367
Pb      15.09860      3.75336      8.44741         0.130809      0.076532      0.314057
Pb      15.19621     15.17348      8.68936        -0.210024      0.212863     -0.663048
Pb       3.81183      3.74421     12.73257        -0.011974     -0.027086     -0.152729
Pb       3.91311     15.03341     12.74075        -0.180337      0.659841      0.156459
Pb       0.17997      3.57528     12.82820        -0.525655      0.497747      0.219439
Pb       0.04560     15.01230     12.67010        -0.164028      0.463891      1.038391
Pb       3.68807      7.68349      4.35886        -0.070143     -0.248263     -0.660411
Pb       3.85085      7.72805      0.23763         0.115193     -0.360489     -0.337259
Pb      15.13125      7.69039      4.20027         0.547534      0.326967     -0.172720
Pb       0.14727      7.62668     16.98692        -0.368780     -0.119006     -0.474759
Pb       3.74458      7.48685      8.48968        -0.160647      0.129900     -0.558498
Pb      15.01642      7.58199      8.52799         0.333326     -0.255484      0.100182
Pb       3.71226      7.52194     12.75728         0.145979     -0.588026     -0.447856
Pb      15.11493      7.41995     12.77179         0.129068      0.082477     -0.473473
Pb       3.57867     11.67661      4.33924         0.539119     -1.186914     -0.316098
Pb       3.93877     11.43590     16.97341        -0.115737     -0.009501      0.290814
Pb      14.94648     11.59874      4.35266         0.147218     -0.780871     -0.314272
Pb       0.04932     11.45022     16.87781        -0.431121     -0.131175     -0.044170
Pb       3.73408     11.44887      8.39796         0.021172     -0.648547      0.173706
Pb      15.04319     11.27274      8.65327         0.351222      0.039441     -0.414566
Pb       3.68110     11.22715     12.78044         0.387465      0.611475     -0.320107
Pb      15.11458     11.30854     12.57009         0.339543     -0.044614      0.785720
Pb       7.63878      3.80746      4.12498        -0.149360     -0.210214      0.083508
Pb       7.67654      3.87493      0.08503        -0.252044     -0.426524     -0.362150
Pb       7.53565      0.02199      4.19519         0.124917     -0.043480     -0.306243
Pb       7.56854     15.11968      0.09584         0.270483      0.348945     -0.717536
Pb       7.79038      3.79373      8.20991        -0.608106     -0.119606      0.593603
Pb       7.50380     15.14326      8.45087         0.406177     -0.155188     -0.290648
Pb       7.45854      3.68736     12.65545         0.454991      0.314638      0.087519
Pb       7.57885      0.11742     12.68828         0.211393     -0.659388      0.099473
Pb       7.63319      7.59200      4.38422        -0.223045     -0.026585     -0.963317
Pb       7.55217      7.54278      0.01750        -0.120729      0.408480      0.078591
Pb       7.61772      7.59222      8.44441         0.196500      0.156797     -0.103263
Pb       7.59955      7.50842     12.73862        -0.429019      0.157736     -0.521718
Pb       7.53047     11.33827      4.12477         0.709868      0.443351      0.500051
Pb       7.61132     11.42099      0.08752         0.063190     -0.117936     -0.134542
Pb       7.44787     11.42767      8.30367         0.848363     -0.282953      0.926071
Pb       7.50275     11.36132     12.70579         0.810603     -0.099011      0.236622
Pb      11.49811      3.88342      4.03556        -0.619977     -0.865710      0.241194
Pb      11.50652      3.85102     16.97813        -0.767642     -0.447785      0.164669
Pb      11.47018      0.02894      4.22377        -0.002989     -0.289805     -0.870551
Pb      11.37212     15.11277     16.93770         0.108062     -0.060325     -0.003482
Pb      11.39388      3.65353      8.40066         0.275686      0.374532      0.466515
Pb      11.20864     15.10350      8.70300         0.611957      0.211283     -0.429987
Pb      11.40136      3.73055     12.70922        -0.225293      0.076453      0.023522
Pb      11.27270      0.07526     12.87842         0.479790     -0.254356     -0.312519
Pb      11.52831      7.55428      4.11624        -0.777352      0.945961     -0.054659
Pb      11.37610      7.60902     16.95819        -0.031494     -0.186270     -0.055763
Pb      11.40374      7.60677      8.39586        -0.130544      0.051334      0.437322
Pb      11.28164      7.48443     12.66742         0.443701     -0.197991      0.103845
Pb      11.45457     11.52118      4.19092        -0.175118     -0.419024     -0.022774
Pb      11.46580     11.24958     16.95470        -0.200808      0.724528     -0.075433
Pb      11.21149     11.45741      8.64856         0.152243     -0.419913     -0.454852
Pb      11.28132     11.10380     12.92831        -0.107636      0.944468     -0.407854
Ti       1.86580      1.92305      2.12677        -0.458406      0.288455      1.058404
Ti       1.98610      1.83725     15.01967        -1.020373      0.156197      0.146051
Ti       1.76377     13.35045      2.25170         1.370655     -0.559100      0.199447
Ti       2.00990     13.26849     14.96879        -0.440881      0.295755     -0.282508
Ti      13.32699      1.83653      2.08192        -0.095137      0.263041      0.288843
Ti      13.27561      1.85439     15.02541         0.812037     -0.726745     -0.333983
Ti      13.37933     13.32180      2.04617        -2.239064     -0.017494      0.261866
Ti      13.31863     13.24805     14.86772        -0.264064      0.122384     -0.232803
Ti       1.84311      1.90758      6.45578        -0.214137      0.620298      0.530340
Ti       1.84188     13.32391      6.52819        -0.325559     -0.407917      1.163377
Ti      13.27004      1.84540      6.35107         0.696637      0.542004      0.755851
Ti      13.33876     13.31060      6.73169        -1.205431      0.047286     -0.493685
Ti       1.94449      1.78102     10.74617         1.090404      1.029053     -0.350966
Ti       1.95772     13.24466     10.69303         0.266910      0.122073      0.125775
Ti      13.33889      1.85380     10.84826        -1.140803      0.127643      0.453750
Ti      13.24872     13.20848     10.81514        -1.062203      0.863186      0.348825
Ti       1.87731      5.68381      2.19037         0.696612      0.328007      1.278573
Ti       1.87665      5.67625     15.02840         0.202367     -0.342158     -0.717240
Ti      13.31532      5.68280      2.11699        -0.054325      0.294044     -1.034187
Ti      13.21541      5.65929     14.97468         0.178381      0.775354     -0.561869
Ti       1.81682      5.67745      6.60867        -0.018418     -0.250690      0.605114
Ti      13.19203      5.68734      6.40778         1.398943      0.037398      1.409109
Ti       1.85729      5.57888     10.66669         0.103736      0.912445      0.567142
Ti      13.26456      5.58945     10.69823        -0.381371      0.349157      0.462073
Ti       1.90048      9.57054      2.18948        -0.584262     -1.083517      1.271581
Ti       1.93732      9.47870     14.91506        -0.884591     -0.355545      0.663938
Ti      13.34354      9.49490      2.03657        -0.571457      0.337430      2.137119
Ti      13.32327      9.41823     14.94567        -0.215243      0.266554      0.300729
Ti       1.86493      9.45662      6.54406        -0.226584      0.454521      0.318424
Ti      13.27984      9.52677      6.46340        -0.644806     -0.580490      1.603207
Ti       1.85880      9.38841     10.68550        -0.535050      0.333930      0.520181
Ti      13.14682      9.42336     10.77946         0.750859     -0.919354     -0.124304
Ti       5.61831      1.94971      2.21888        -0.133759     -0.969179      0.618366
Ti       5.68118      1.90923     15.06232         1.086231     -0.170303      0.298257
Ti       5.65232     13.31086      2.37334        -0.086459      0.510371      0.013209
Ti       5.82723     13.23936     14.91449        -0.787001      0.376328     -0.019342
Ti       5.73009      1.91984      6.41373        -0.225449      0.335977     -0.534496
Ti       5.69736     13.28444      6.43226         0.206294      0.455559      0.127717
Ti       5.69520      1.82444     10.59720        -0.625972     -0.275175      0.121116
Ti       5.72974     13.20333     10.70278         1.115780      0.348658     -0.019459
Ti       5.71706      5.73672      2.31689        -0.942237      0.110826      1.612445
Ti       5.65477      5.68809     15.07382        -0.830866     -0.104453      0.358051
Ti       5.73413      5.74323      6.37758        -1.202513     -1.127858      0.180287
Ti       5.65777      5.59345     10.54954         0.541489      0.276108      1.372891
Ti       5.62206      9.57927      2.40598         0.212838     -1.344398     -1.175246
Ti       5.63936      9.44156     14.94668         0.453816      0.397874      1.807521
Ti       5.68853      9.50323      6.41551        -0.349548     -0.499327      0.025472
Ti       5.60007      9.40622     10.60379         1.650192      0.324440      0.492889
Ti       9.44931      1.86534      2.15364         0.972452     -0.101013     -0.204290
Ti       9.50447      1.86444     15.06906        -1.766422     -0.263217      0.027641
Ti       9.57136     13.28283      2.26971        -0.137791      1.126713      0.094824
Ti       9.51622     13.23094     14.97526         0.419224      0.613910     -0.743064
Ti       9.59439      1.81447      6.29654        -0.803289      0.037015      1.912832
Ti       9.60402     13.28544      6.45221        -0.418722     -0.529501     -0.697093
Ti       9.46411      1.89111     10.67146         0.979095      0.211694      1.421443
Ti       9.51561     13.27564     10.79727        -0.837752      0.390255      1.131966
Ti       9.51856      5.71361      2.16675        -0.833326      0.147062      0.218887
Ti       9.42229      5.62735     14.92019         0.443564     -0.141136      2.145745
Ti       9.56065      5.70717      6.36342        -0.513506     -0.193372     -0.384591
Ti       9.42305      5.69475     10.67654         0.364338     -1.463435     -0.178529
Ti       9.53600      9.54103      2.19741        -0.177716     -0.349862      0.437006
Ti       9.40170      9.44896     15.03925         0.074919      0.214065     -0.674026
Ti       9.48070      9.48879      6.38913         0.552234      0.494192     -0.392601
Ti       9.37351      9.48245     10.67045        -0.372730      0.428046      0.921818
O       1.83593      1.75713      0.37562         0.537078      0.481802     -0.466087
O       1.98267      1.85686     13.24065        -0.004487      0.351593     -0.850722
O       1.71267     13.21174      0.50819         0.489311      0.463623     -0.414755
O       2.03595     13.39047     13.19794        -0.115620     -0.760373     -0.429952
O      13.42015      1.84862      0.31561        -0.402039      0.166910     -0.934520
O      13.32632      1.96477     13.25063        -0.209696     -0.542412     -0.500722
O      13.35660     13.22352      0.31238         0.038624      0.127047     -0.445934
O      13.17241     13.24549     13.02171         0.948753     -0.472329      1.236727
O       1.83191      1.88606      4.67271        -0.350537      0.101580     -0.040373
O       1.88879     13.29190      4.75318        -0.655895     -0.053271     -0.663082
O      13.39369      1.83835      4.58465        -0.127217      0.190004      0.122638
O      13.17028     13.10958      4.91636         0.605362      0.726905      0.311068
O       1.87937      1.93917      8.95281         0.122623     -0.518855      0.207314
O       1.82025     13.38663      8.90446         0.743365     -0.099856      0.342157
O      13.15938      2.02360      9.11036         0.419897     -0.503442     -0.407877
O      13.29267     13.11756      8.99228         0.128521      0.573004     -0.201395
O       1.91190      5.60502      0.46987         0.024696      0.468843     -1.593488
O       1.78430      5.58757     13.22726         0.477790      0.559772      0.006515
O      13.20054      5.66493      0.29539         0.273416      0.107159      0.813689
O      13.08359      5.78769     13.16938         0.703832     -0.115117      0.404611
O       1.83420      5.54461      4.82511        -0.504330      0.552307     -1.121841
O      13.31557      5.75437      4.62668        -0.268224     -0.247436     -0.743351
O       1.87169      5.57694      8.89496         0.432081      0.192736     -0.082909
O      13.16294      5.61668      8.95012         0.125890     -0.201042     -0.674338
O       1.96989      9.37894      0.42746        -0.239497      0.227783     -0.684642
O       1.93960      9.32815     13.14042         0.060967      0.685289      0.072617
O      13.32337      9.38341      0.31920         0.181282      0.198583     -0.859778
O      13.25257      9.36798     13.14816        -0.190502      0.350439     -0.604802
O       1.75222      9.40276      4.77318         0.278637      0.158943     -0.021595
O      13.21848      9.35490      4.74019         0.555097      0.440158     -0.949660
O       1.89624      9.46567      8.92135         0.191184     -0.065476      0.311406
O      13.23079      9.33760      8.99313         0.031210      0.701930     -0.164803
O       5.56577      1.74002      0.44173         0.378629      0.686160     -0.527085
O       5.63838      1.88029     13.29739         0.040925      0.171373     -0.941275
O       5.66919     13.21107      0.60101        -0.003280      0.036865     -0.819648
O       5.69396     13.24325     13.11438         0.366885     -0.065082      0.526476
O       5.69171      1.82022      4.62805        -0.010208      0.087279      0.178991
O       5.66649     13.31845      4.68260        -0.252835     -0.003165     -0.642075
O       5.63989      1.86022      8.81087         0.178539     -0.132095     -0.538683
O       5.75720     13.28772      8.88211        -0.351804      0.151183     -0.240992
O       5.68488      5.72760      0.58497        -0.095149      0.013494     -1.798387
O       5.72921      5.69467     13.33923        -0.173545     -0.056955     -1.106849
O       5.63321      5.75009      4.60566         0.290594     -0.280749      0.120559
O       5.67578      5.67181      8.80368        -0.034413     -0.078419     -0.690161
O       5.48023      9.48876      0.54767         0.243407      0.214478      0.513753
O       5.59546      9.52322     13.23982         0.130645     -0.308879     -1.977292
O       5.69427      9.43494      4.61707         0.311223      0.160479      0.031171
O       5.72441      9.55809      8.83561        -0.364069     -0.528717      0.318002
O       9.46019      1.89213      0.36695        -0.365848     -0.166769      0.309934
O       9.57149      1.86113     13.28531        -0.621428     -0.132858     -0.711705
O       9.59630     13.20557      0.49572        -0.393003      0.272912     -0.283412
O       9.44440     13.18808     13.17957         0.350643      0.389035     -0.013893
O       9.48792      1.68333      4.59152         0.233720      0.589906     -0.918193
O       9.77594     13.47135      4.64359        -0.556765     -0.742819      1.208670
O       9.62967      1.85444      8.91817        -0.384783     -0.012632     -0.598649
O       9.55707     13.29788      9.03215        -0.232667      0.241104     -1.546174
O       9.53281      5.61257      0.38436        -0.584598      0.086142      0.114008
O       9.44645      5.68444     13.19472        -0.244023      0.027674     -1.081860
O       9.56849      5.59664      4.57633        -0.049044      0.611893      0.462980
O       9.35280      5.70381      8.89811         0.115662     -0.108397     -0.720365
O       9.49644      9.59313      0.40419        -0.168749     -0.150079     -0.159150
O       9.37459      9.51002     13.18548         0.558941     -0.291014      0.985545
O       9.44287      9.41072      4.59004        -0.151213      0.173268     -0.122164
O       9.39021      9.40012      8.92411         0.079143     -0.033169     -0.220568
O       3.71052      1.88995      2.60737         0.304683     -0.218537     -0.070249
O       3.79874      1.90154     15.35288         0.292584      0.402295      0.642227
O       3.71443     13.31961      2.72906        -0.278757      0.248272     -0.338307
O       3.90105     13.13975     15.33327        -0.825467     -0.089628     -0.123965
O      15.16677      1.87964      2.44452         0.858762      0.062350      0.699567
O       0.04484      1.74589     15.27529        -0.533251      0.511428      0.067691
O      15.10369     13.28778      2.68688         1.470994     -0.399160      0.485955
O       0.01640     13.32315     15.32199        -0.008457     -0.201758     -0.508915
O       3.73770      1.92504      6.70562         0.372386     -0.294766      0.426904
O       3.77163     13.36475      6.84339        -0.038619     -0.169260     -0.119054
O      15.12957      2.00122      6.90452        -0.471187     -0.604232     -0.387921
O       0.00930     13.21334      7.00807        -0.668860      0.280773     -0.340735
O       3.84400      1.96799     11.04479        -0.912484     -0.065425      0.049642
O       3.93226     13.20039     11.05637        -1.727733     -0.566453     -0.087646
O       0.11034      1.67066     11.15696        -0.976781      0.645891     -0.189913
O       0.08640     13.35739     11.00178        -0.546774     -0.268769      0.249340
O       3.78237      5.64029      2.68699        -0.051896      0.171871     -0.258286
O       3.71680      5.60392     15.33945         1.172752     -0.250576      0.341936
O      15.15863      5.74897      2.40382        -0.141166     -0.067419      0.680931
O      15.18022      5.68722     15.28523        -1.038451      0.458460      0.325070
O       3.70445      5.62415      6.76666         1.106112      0.608601      0.295427
O      15.04845      5.61868      6.97350         0.321445      0.149391     -0.716857
O       3.83242      5.64302     11.10863        -0.615059      0.046340     -0.254523
O       0.00774      5.67062     10.96330        -0.870022      0.363239      0.375766
O       3.72393      9.42230      2.68698         0.563360      0.133059      0.062359
O       3.80256      9.74191     15.21041        -1.070893     -0.325594      0.338802
O      15.14131      9.42870      2.63748         0.768264      0.124007     -0.541771
O      15.16167      9.28384     15.29530         1.208790      0.461680     -0.120443
O       3.78601      9.48195      6.85915         0.125876     -0.555907     -0.097096
O       0.00967      9.50798      7.00192        -0.805257     -0.151567     -0.483110
O       3.79049      9.56931     11.05891        -0.132804     -0.281417     -0.095451
O      15.18500      9.46644     11.15258        -0.382030     -0.298072     -0.490747
O       7.54112      1.90255      2.51450         0.823135     -0.091769      0.080982
O       7.55371      1.70202     15.20038        -0.091138      0.174009      0.875072
O       7.57225     13.24657      2.59372         0.523859      0.296717      0.261815
O       7.66331     13.26073     15.26402        -1.214241      0.578103      0.758510
O       7.65669      1.91193      6.69315        -0.095705     -0.179327      0.189618
O       7.54423     13.22131      6.76438         0.945706      0.373403     -0.121330
O       7.56747      1.79972     10.96122         0.121321     -0.197457      0.337942
O       7.64128     13.52027     11.00280        -1.090965     -0.118256      0.385127
O       7.57545      5.70387      2.64580         1.405464     -0.635293     -0.084060
O       7.52233      5.78893     15.37567         1.268854      0.206136      0.338934
O       7.60897      5.60287      6.64582         0.390064      0.181312      0.085048
O       7.54847      5.53105     11.03010        -1.022823      0.730158      0.333684
O       7.56641      9.72802      2.42886         0.650256     -0.692902      0.345015
O       7.50157      9.40392     15.26639         1.473457     -0.469427      0.564966
O       7.61178      9.54881      6.87136        -1.001587     -0.202115     -0.666345
O       7.55800      9.40818     11.15331        -0.332375     -0.602181     -0.272707
O      11.49019      1.76194      2.31780        -1.657331      0.548766      0.821300
O      11.32107      1.79185     15.27412         1.995039      0.413026      0.581303
O      11.48805     13.30978      2.57199        -0.055702      0.162395     -0.010897
O      11.40023     13.23559     15.26626         0.459541     -0.286043      0.218696
O      11.40171      1.76245      6.68655        -0.050427      0.296462      0.175129
O      11.39806     13.22617      7.06947         0.286597      0.250562     -0.320342
O      11.35308      1.94660     11.21661         0.863392     -0.286062     -0.410351
O      11.37796     13.18832     11.05682         0.839882      0.014036     -0.109440
O      11.33510      5.64869      2.44672         1.694288      0.367848      0.507226
O      11.33704      5.51748     15.31202        -0.002523      0.238602     -0.144975
O      11.36730      5.76787      6.79232        -0.249318      0.289156     -0.017348
O      11.30389      5.62635     10.93592         0.209945     -0.460057      0.697082
O      11.42919      9.49671      2.46747        -0.227353      0.232184      0.040020
O      11.40208      9.49756     15.41218        -0.923038      0.393633     -0.683997
O      11.31909      9.47654      6.74560         1.201404     -0.480560      0.399185
O      11.29483      9.53566     11.06625        -0.273671     -0.096440      0.248956
O       1.80095      3.80656      2.54789         0.123147     -0.180749      0.255613
O       1.81237      3.77615     15.43614         0.299146     -0.498708     -0.184555
O       1.79303      0.00537      2.63544         0.219492     -0.118562     -0.145190
O       1.99263     15.13984     15.25908         0.135363     -0.365026      0.650600
O      13.21568      3.82136      2.47659         0.512579      0.172699      0.000305
O      13.30480      3.74217     15.25839         0.071677      0.595551      0.401205
O      13.33599     15.18309      2.43641         0.366760     -0.782113      0.365415
O      13.26623     15.09955     15.17770        -0.177386      0.446043      0.302116
O       1.75860      3.79814      6.84695         0.341025     -0.775858      0.087373
O       1.74741      0.02361      6.76329         0.226332     -0.288920      0.454874
O      13.10760      3.80930      6.74822         0.291137     -0.697176     -0.218816
O      13.25001      0.05581      6.92861         0.669923     -1.346398      0.012913
O       1.83817      3.81828     11.18723         0.425469     -1.719557     -0.298131
O       2.15673     15.15420     11.07549        -0.573204     -0.491683     -0.204517
O      13.32728      3.75397     11.23117         0.364458     -0.172064     -0.177261
O      13.32419     15.12140     11.14018        -0.333441      0.555246     -0.418989
O       1.96489      7.57175      2.60716        -0.628881     -0.066607      0.061663
O       1.97065      7.57201     15.29557         0.121489      0.777499      0.295246
O      13.22398      7.60664      2.56337         0.245992     -0.553285     -0.400236
O      13.14293      7.62061     15.31264         0.127943     -2.023038      0.026579
O       1.84360      7.56044      6.95601         0.011429      0.240838     -0.161637
O      13.33077      7.55804      6.88939        -0.426102      0.463613     -0.299666
O       1.84702      7.56070     11.08619         0.780603     -0.432020     -0.109233
O      13.13073      7.50806     10.93180         0.418152      0.484538      0.871321
O       1.95539     11.36048      2.44995        -0.537602      1.259089      0.799608
O       1.69013     11.38181     15.30730         0.875706     -0.703177     -0.573666
O      13.28200     11.38006      2.52759         0.338916      0.095364      0.108616
O      13.32886     11.32402     15.34900         0.137967      0.379438     -0.521643
O       1.93799     11.41811      6.91968        -0.102329     -0.145505     -0.472481
O      13.31540     11.33897      6.89760         0.031451      0.160220      0.135379
O       1.84277     11.40066     11.10248         0.364908     -0.514191     -0.072688
O      13.30649     11.31330     11.07153         0.284228      0.162094      0.106698
O       5.69852      3.71602      2.62928        -0.010971      1.692473     -0.073912
O       5.79948      3.82872     15.52127        -0.453791     -0.736022     -0.139506
O       5.69610     15.19515      2.48100        -0.189751      0.011850      0.775936
O       5.59679     15.13600     15.42503         0.444646     -0.608016     -0.260598
O       5.62831      3.83186      6.68253         0.300076     -0.697732      0.349389
O       5.69549      0.02289      6.68957        -0.002708     -0.500483      0.742501
O       5.62338      3.66814     11.00382         0.655290      1.478129      0.190081
O       5.58823     15.18922     11.04896         0.365415     -0.229806     -0.114857
O       5.85769      7.60985      2.62431        -0.639061      0.522742     -0.025324
O       5.55825      7.60258     15.49848        -0.142450      0.174259     -0.246574
O       5.75296      7.60609      6.62651        -0.102618     -0.301899      0.805958
O       5.66258      7.51252     10.95461         0.023153      0.499932      0.049887
O       5.66227     11.41623      2.72437        -0.809657      0.037665      0.047061
O       5.87327     11.39307     15.49371        -0.599499     -0.213463     -0.581949
O       5.57926     11.34527      6.69870         0.131722      1.199367      0.329549
O       5.98090     11.33361     11.04590        -1.372640      0.149658     -0.775930
O       9.61591      3.75078      2.54370        -0.759913     -0.085435      0.132056
O       9.32055      3.73654     15.42264         0.157217      0.835398     -0.470619
O       9.50185      0.04876      2.63967        -0.191937     -0.969613     -0.607934
O       9.48809     15.14147     15.50512         0.036954     -0.461627     -0.370398
O       9.64502      3.76096      6.70523        -0.489380     -0.064554     -0.088252
O       9.52759     15.06934      6.92260        -0.370439      1.464415     -0.100600
O       9.34008      3.72340     11.13176         0.539125      0.169374     -0.249969
O       9.65327      0.00959     11.16485        -0.506380      0.471581     -0.289058
O       9.57072      7.60147      2.37258        -0.715121      0.383367      0.436769
O       9.63278      7.53542     15.35765        -0.858950      0.357149     -0.322697
O       9.39352      7.61795      6.76005        -0.061877     -1.127681     -0.042322
O       9.45164      7.50763     11.06085        -0.329189      1.164615      0.181211
O       9.51692     11.49633      2.63932         0.267147     -1.686723      0.214250
O       9.41885     11.37443     15.29958         0.306947     -1.076119      0.345045
O       9.56651     11.36668      6.84583        -0.518761      0.668456     -0.138138
O       9.35349     11.43654     10.94664        -0.004249     -1.832950      0.484004
