  # total energy = -7878.99308679 
CRSYTAL
PRIMVEC
    15.6000000000000000    0.0000000000000000    0.0000000000000000
     0.0000000000000000   15.6000000000000000    0.0000000000000000
     0.0000000000000000    0.0000000000000000    17.640000000000000
PRESSURE
-4.58469 -4.96981 -5.64619 0.160689 -0.58603 -0.032606
PRIMCOORD
320 1
Pb       3.92206      3.91374      4.27143        -0.027573     -0.089845      0.473652
Pb       3.79824      3.72021     17.56485         0.243413      0.228484     -0.209963
Pb       4.03484      0.09143      4.40303        -0.135582     -0.845554     -0.157146
Pb       4.00133     15.53373     17.49895        -0.640041      0.690250      0.703196
Pb       0.00070      3.86725      4.30603        -0.551408     -0.035628     -0.038618
Pb      15.51003      3.77724     17.56643         0.710012      0.117562     -0.015968
Pb       0.00324      0.00268      4.31691        -0.189594      0.091580      0.163212
Pb       0.16410     15.51555     17.60681        -0.351698      0.446082     -0.265379
Pb       3.92230      3.82258      8.73674        -0.142301      0.067671      0.101694
Pb       3.86067     15.58825      8.75079         0.229333      0.063648      0.346928
Pb       0.04357      3.78702      8.68795        -0.002184      0.320584      0.531756
Pb       0.06890     15.59265      8.93662        -0.766702      0.257549      0.103425
Pb       3.71562      4.08291     13.08696         0.469144     -0.246402      0.538815
Pb       3.88309      0.05717     13.20333        -0.328920      0.068802     -0.249482
Pb      15.52550      3.82059     13.23711         0.453129      0.446395      0.270776
Pb       0.00298      0.00308     13.15382        -0.173741     -0.359466      0.152131
Pb       3.82913      7.80498      4.16895         0.436159     -0.240955      0.703020
Pb       3.75537      7.81075     17.56146         0.415774     -0.379698      0.604224
Pb      15.49778      7.70276      4.42821         0.080826     -0.362442     -0.103540
Pb      15.43391      7.77277      0.01171         0.621444     -0.150958      0.250217
Pb       3.81461      7.76215      8.75642         0.582169     -0.028935      0.303111
Pb       0.06876      7.80161      8.62934        -0.131998     -0.526609      1.204013
Pb       3.86166      7.90958     13.17486         0.255995     -1.284617      0.118705
Pb      15.40087      7.82598     13.18721         0.354172      0.005064     -0.189094
Pb       3.89968     11.61265      4.30278         0.221983      0.591757      0.063319
Pb       3.90904     11.64888     17.54389        -0.085474     -0.332871      0.127486
Pb      15.59862     11.59340      4.40841         0.032482      0.786959      0.255113
Pb      15.59782     11.55476      0.11416        -0.085802      0.221060     -0.295584
Pb       3.91272     11.71602      8.64017        -0.334364      0.007476      0.691859
Pb       0.03940     11.54675      8.78753        -0.083856      0.174631      0.020624
Pb       3.93053     11.55390     13.23202        -0.045327      0.588944     -0.078697
Pb       0.13484     11.60006     13.24993        -1.061315      0.263717     -0.261091
Pb       7.81505      4.03092      4.29941         0.028370     -0.088842     -0.007368
Pb       7.85988      3.79845     17.50153        -0.937485      0.753583      0.803526
Pb       8.00181      0.00170      4.35003        -1.118839     -0.346297      0.191901
Pb       7.87175     15.40224     17.61653        -0.154113      0.891371      0.460882
Pb       8.02943      3.89846      8.67375        -0.728557      0.007717      0.402758
Pb       7.75091     15.53643      8.65874        -0.047968      0.093659      0.270790
Pb       7.61655      3.82274     13.06262         0.098331      0.193142      0.549396
Pb       7.71412     15.48026     13.17531         0.221592      0.531191      0.131708
Pb       7.66305      7.83596      4.33376         0.117863     -0.101311     -0.412986
Pb       7.81331      7.77895     17.48793        -0.074297     -0.315155      1.181995
Pb       7.89293      7.80818      8.75450        -0.807689     -0.167439      0.158490
Pb       7.86450      7.67709     13.16627        -0.836747     -0.027469      0.254569
Pb       7.73000     11.68306      4.33213        -0.043020      0.307913      0.015904
Pb       7.76819     11.74599     17.61101         0.178568     -0.687093      0.852763
Pb       7.75179     11.63219      8.79419        -0.381951      0.137389     -0.299231
Pb       7.77768     11.51321     13.21634         0.109307      0.370342      0.088790
Pb      11.58591      3.93180      4.32719         0.282724      0.483358     -0.207809
Pb      11.66210      3.95636     17.49636        -0.338938      0.168237      0.625221
Pb      11.79225      0.05068      4.36089        -0.064556     -0.083587      0.012903
Pb      11.81111      0.03684     17.51476        -0.451360     -0.135478      0.468876
Pb      11.73723      3.89924      8.76305        -0.838851      0.421738      0.438635
Pb      11.57737     15.52824      8.81812         0.356699      0.339761      0.126538
Pb      11.58835      3.87958     13.20321         0.286493     -0.016567     -0.222206
Pb      11.74227      0.01898     13.21709        -0.041239     -0.127707      0.367734
Pb      11.65292      7.85942      4.36272        -0.398324     -0.426059      0.150259
Pb      11.82699      7.89035     17.60957        -1.107428     -0.369123      0.489425
Pb      11.82311      7.76095      8.77596        -0.567229      0.002421      0.004355
Pb      11.66400      7.87216     13.20574         0.436413     -0.305747     -0.163671
Pb      11.74444     11.79765      4.53885        -0.453728     -0.095711     -0.204953
Pb      11.59910     11.80493      0.09644         0.100009     -0.482671     -0.185474
Pb      11.57688     11.75764      8.77763         0.402271     -0.350357      0.033447
Pb      11.82017     11.69012     13.24563         0.154582      0.238286      0.004700
Ti       1.96948      1.87290      2.41060        -0.253016      0.002417     -1.430427
Ti       1.93532      1.87995     15.50624        -0.146366      0.772449     -0.515628
Ti       1.85748     13.63781      2.35486         0.722287      0.242672     -0.077239
Ti       1.97131     13.52039     15.59399        -0.817931      0.405020      0.002399
Ti      13.58105      1.95488      2.29703         0.767245      0.319228     -0.634761
Ti      13.58155      1.98722     15.68478         0.722318     -1.295821     -0.777582
Ti      13.56497     13.63727      2.38840         0.665272      0.203685     -1.207576
Ti      13.78688     13.67073     15.59067        -0.825527      0.274617      0.526570
Ti       1.86695      1.90825      6.74998         0.078590      0.302990     -0.931501
Ti       1.73771     13.73677      6.91106         1.082328     -1.251156     -1.798868
Ti      13.43725      2.00145      6.78163         1.250190     -1.167095     -2.009012
Ti      13.56655     13.68511      6.95393        -0.376376      0.378079     -0.661712
Ti       1.91524      1.94933     11.19375         0.326598      0.124731     -0.372733
Ti       1.91695     13.55843     11.23459        -0.738602      0.137994      0.025337
Ti      13.64222      2.00795     11.24678        -0.517414     -0.707355     -0.438332
Ti      13.55908     13.72492     11.23895         0.604653     -1.084384     -0.776358
Ti       1.95568      5.79579      2.27946        -1.260415      0.468614     -0.244537
Ti       1.90455      5.85735     15.62803        -0.302494     -1.649617     -0.192429
Ti      13.63994      5.85754      2.35497        -0.499376     -0.311272     -0.260106
Ti      13.67979      5.85319     15.64865        -0.737824      0.441364     -0.848747
Ti       2.00585      5.79718      6.72109        -0.655295     -0.117741      0.305223
Ti      13.71335      5.80428      6.88548        -0.894006      0.380661      0.351061
Ti       1.87114      5.87340     11.17822         0.086144      0.467372     -1.366275
Ti      13.62929      5.88713     11.20151         0.303606     -0.122483     -0.709112
Ti       1.81869      9.72680      2.46113         0.214169     -0.656701     -1.483711
Ti       1.85139      9.66550     15.62525        -0.381984      0.260654      0.141653
Ti      13.58604      9.77432      2.59143        -0.951969     -0.615722     -1.119382
Ti      13.55652      9.90229     15.71900         0.310794     -0.285171     -1.572506
Ti       1.97501      9.69380      6.70888        -0.142916      0.752051     -0.746565
Ti      13.63348      9.68249      6.80502        -1.341218      0.233409     -0.749379
Ti       1.92611      9.66129     11.20593        -1.183860      0.225520      0.008158
Ti      13.60982      9.81139     11.09171         1.054833      0.324314     -0.009865
Ti       5.87843      1.94802      2.33412        -0.045891     -0.801295     -0.074454
Ti       5.82714      1.89331     15.51340        -0.283677      1.187020     -0.160734
Ti       5.76915     13.64001      2.26055        -0.030535      0.148704      1.407823
Ti       5.85634     13.56954     15.64448        -0.203533      0.166822     -0.892972
Ti       5.83284      1.90442      6.75329        -0.667755      0.318187     -0.696804
Ti       5.75031     13.63426      6.79144         0.077895     -0.349829     -1.133073
Ti       5.77032      1.93385     11.12579        -0.240896      0.097046      0.257934
Ti       5.78191     13.62445     11.25152        -0.447934      0.034107     -0.842300
Ti       5.82433      5.75210      2.26773         0.173405      0.780694     -1.428060
Ti       5.70445      5.82200     15.68186         0.814479     -0.474697     -0.920504
Ti       5.77514      5.76831      6.71292         0.866119      0.244617     -0.499909
Ti       5.87045      5.80737     11.02255        -1.107176      1.036844     -0.493418
Ti       5.78652      9.77123      2.27042         0.800541     -0.547520     -0.198015
Ti       5.81221      9.64444     15.62014        -0.263604      0.019375     -0.276362
Ti       5.82859      9.72605      6.76707        -0.188255     -0.610386     -1.123334
Ti       5.84906      9.71993     11.24293         0.085403     -0.751800     -0.214540
Ti       9.77199      1.97893      2.32289        -0.203172      0.377231      0.166570
Ti       9.60279      1.89766     15.55558         0.965466     -0.207341      1.050773
Ti       9.67871     13.65473      2.36777        -0.286726     -0.528798     -0.421501
Ti       9.82531     13.58581     15.63527        -0.136757      0.302530      0.232688
Ti       9.66555      1.99343      6.63227         0.018631     -0.257774      0.849847
Ti       9.64478     13.64009      6.83252        -0.695214     -0.123093     -1.981111
Ti       9.69388      1.83582     11.20268        -0.054956      0.299640     -1.009256
Ti       9.69682     13.59671     11.21461         0.585137      0.604168     -0.119155
Ti       9.74329      5.88486      2.27576         0.628810      0.113050     -0.854851
Ti       9.68379      5.82906     15.53882        -0.222946      0.157004      1.033237
Ti       9.69750      5.88645      6.76445         0.495012      0.118435     -2.102533
Ti       9.73707      5.77194     11.22866         0.311010      0.327129     -0.898336
Ti       9.67101      9.75792      2.36135        -0.025315      0.294445     -0.736719
Ti       9.63468      9.71398     15.57785         1.322527      0.141863      0.376892
Ti       9.68926      9.71616      6.79893         0.674808     -0.156320     -0.514333
Ti       9.78439      9.73249     11.20554        -0.424953     -0.324584     -0.124490
O       2.14080      1.88093      0.57696        -0.531197      0.032657      1.919783
O       1.93603      1.97608     13.69199        -0.069757     -0.342412      0.806487
O       1.78412     13.67620      0.59516         0.381110     -0.353764      0.458801
O       1.92415     13.44299     13.83626         0.091430      0.201674      0.542987
O      13.67738      1.91820      0.49119        -0.174940      0.284435      0.880123
O      13.67070      1.90405     13.92440        -0.031926      0.175700     -0.386235
O      13.68210     13.54311      0.60827        -0.397714      0.077420      1.454252
O      13.65134     13.65540     13.85476         0.037780      0.112029      0.099243
O       1.88439      1.79370      4.92081        -0.124467      0.386472      1.666093
O       1.68773     13.70737      5.12439         0.132906      0.164136      1.417578
O      13.52428      1.97818      4.92617        -0.374267     -0.101634      2.138150
O      13.45526     13.67525      5.15640         0.161990     -0.175174      0.914835
O       1.81819      1.95531      9.35456         0.214626     -0.120349      1.761248
O       1.79267     13.78512      9.46365         0.272322     -0.637101      0.327096
O      13.62845      1.88027      9.47003        -0.227370      0.608644      1.274089
O      13.42079     13.79133      9.42704         0.194645     -0.268903      0.419780
O       1.85869      5.88618      0.50721         0.141544     -0.302811      0.884555
O       1.88562      5.62538     13.85554         0.044247      0.807031      0.709672
O      13.62961      5.83826      0.57774         0.005759      0.178641      0.327963
O      13.65829      6.12419     13.86390        -0.082167     -0.679929      1.020916
O       1.89956      5.80193      4.95710         0.222806     -0.166386      1.410775
O      13.68986      5.81750      5.16630        -0.024363     -0.061455     -0.182376
O       1.87679      5.87836      9.34001         0.095706      0.159821      1.799492
O      13.61812      5.76431      9.40263        -0.140928      0.203478      0.977960
O       1.75505      9.71580      0.62594         0.277590      0.003609      1.815593
O       1.80382      9.76173     13.87482         0.138592     -0.108425      0.433698
O      13.54353      9.87353      0.79247         0.315811     -0.426709      0.351283
O      13.59655      9.94778     13.89834        -0.266053     -0.766222      1.230055
O       1.94641      9.72054      4.91164         0.028553      0.146288      0.994873
O      13.59071      9.53913      4.99380         0.050334      0.774935      0.989207
O       2.01065      9.70812      9.46559        -0.319545     -0.168799     -0.819716
O      13.52769      9.75766      9.31164         0.292557      0.140751      0.930944
O       5.72740      1.90979      0.56702         0.238233      0.357497      1.140742
O       5.84436      2.07792     13.72302         0.131964     -0.632425      1.053896
O       5.86337     13.50411      0.51074        -0.372944      0.296047     -0.339333
O       5.71670     13.58128     13.85056         0.464810      0.132578      1.521661
O       5.72720      1.91452      4.96244         0.170980     -0.267092      1.313536
O       5.72971     13.53183      5.01659        -0.082721      0.193338      0.557950
O       5.61881      1.94168      9.36928         0.495130     -0.219257      0.596013
O       5.72152     13.69290      9.45654         0.236855     -0.174897      1.633449
O       5.70784      5.70784      0.48361         0.243950      0.262572      1.591118
O       5.76985      5.87246     13.84401        -0.054927     -0.123895      1.821282
O       5.81375      5.67667      4.89445        -0.242857      0.566276      1.478744
O       5.82657      5.95867      9.22874         0.234312     -0.531320      1.503832
O       5.89800      9.75199      0.48675        -0.603189      0.159595      1.327239
O       5.80638      9.69441     13.80646         0.025528      0.014383      1.023741
O       5.77690      9.69050      4.92645         0.019301      0.428094      1.846190
O       5.84844      9.79275      9.48967        -0.064518      0.071980      0.526662
O       9.84263      2.06036      0.57306        -0.430132     -0.273881      0.846316
O       9.60059      1.94106     13.82535         0.167934      0.047782     -0.127549
O       9.61802     13.75990      0.55857         0.375725     -0.397955      1.464321
O       9.69072     13.48768     13.87372        -0.061273      0.290638      0.956030
O       9.68820      2.15471      4.89343         0.001358     -0.597297      0.241252
O       9.67463     13.58205      5.00027         0.044149     -0.057962      1.447364
O       9.74174      1.91401      9.37031        -0.113794     -0.166727      1.957442
O       9.75212     13.69399      9.39834        -0.406084     -0.051021      1.119246
O       9.96499      5.83718      0.44775        -0.646571      0.150601      1.989131
O       9.45353      5.80911     13.77325         0.921246     -0.161090      0.556241
O       9.65242      5.82705      4.88572         0.206357     -0.039980      2.453827
O       9.72605      5.83036      9.41987        -0.199935     -0.182575      1.341106
O       9.65202      9.85043      0.57700         0.238085     -0.718343      1.368584
O       9.72002      9.85125     13.76902        -0.000429     -0.109527      1.448584
O       9.62635      9.73396      5.04686        -0.218063     -0.072809      0.192881
O       9.69284      9.61808      9.43435         0.065133      0.372857      1.065788
O       3.83811      1.84318      2.92724        -0.026429      0.933873     -0.871937
O       3.93984      1.91343     15.91730         0.263764     -0.016678     -0.052238
O       3.84804     13.71598      2.69867        -0.580527     -0.698125     -0.130255
O       3.85857     13.56778     16.07836         0.530984     -0.526338     -0.288161
O      15.49441      1.84586      2.79372         0.221999      0.615735     -0.337137
O       0.08144      1.85340     15.94964        -0.382884      0.140156      0.305970
O      15.49912     13.63018      2.80046        -0.141323     -0.169618      0.128724
O       0.03412     13.66892     16.07689         0.317271      0.016305     -0.510848
O       3.82906      1.87367      7.21556         0.019511     -0.274655     -0.420856
O       3.88543     13.73031      7.29566        -1.309036     -0.164297     -0.305684
O      15.45745      2.06294      7.09461         0.624236     -0.332325     -0.041738
O      15.46711     13.63657      7.40783         0.172426      0.022512     -0.411088
O       3.83080      2.03961     11.68264        -0.010965     -0.438252     -0.845184
O       3.80086     13.48305     11.72192         0.245137      0.300396     -0.483664
O       0.02077      1.91891     11.65010        -0.757583      0.163582     -0.281575
O      15.46048     13.58695     11.70424         1.218248      0.720665     -0.387516
O       3.81667      5.78487      2.67348        -0.027601     -0.179591      0.066737
O       3.80503      5.90582     16.13999         0.371756     -0.440078     -0.782615
O      15.52528      5.86196      2.82491         0.063531      0.067758     -0.124410
O      15.52512      5.82025     16.11634         0.939945      0.123509     -0.322965
O       3.92070      5.89586      7.24649        -0.745199     -0.134886     -0.817003
O       0.03136      5.77218      7.28452         0.103235     -0.041746     -0.727369
O       3.85714      5.90276     11.47376         0.036009     -0.225254      0.085355
O      15.54312      5.95791     11.67694        -0.153695     -0.513031     -0.373908
O       3.87385      9.74970      2.77540        -0.736025     -0.015696     -0.465731
O       3.82723      9.65438     15.91658         0.051010      0.428465      0.240582
O      15.48279      9.70516      2.96153         1.208841      0.227566     -0.465885
O      15.49179      9.74920     16.14908         0.265757     -0.716999     -0.239700
O       3.80694      9.73869      7.19791         0.504105      0.097784     -0.349415
O      15.50371      9.72945      7.11324         1.333007      0.368622      0.162191
O       3.74555      9.64343     11.71271         1.651396      1.226505     -0.255471
O      15.56990      9.73044     11.54058        -1.378801     -0.167826      0.004885
O       7.73669      1.98974      2.87918         0.266497     -0.298230     -0.975825
O       7.78560      1.93928     16.01942        -0.474056     -0.071032     -0.294012
O       7.76871     13.66075      2.84819        -0.273864      0.120120     -0.435838
O       7.73150     13.64581     16.16567        -0.107673     -0.235600     -1.309622
O       7.74922      2.03252      7.19095        -0.116183     -0.117415     -0.342865
O       7.61301     13.60802      7.21558         2.063262     -0.155446      0.385303
O       7.78660      1.81359     11.50269        -0.250905      0.414022     -0.038203
O       7.66486     13.78456     11.66460         0.901201     -0.700450     -0.631367
O       7.76101      5.79361      2.54560        -0.340554     -0.191156      0.242350
O       7.74624      5.93389     16.11199         0.598673     -0.332703     -0.759810
O       7.78721      5.75460      7.08844        -0.374952      0.046918      0.226255
O       7.74055      5.87883     11.59334         0.248989     -0.021231     -0.558351
O       7.68961      9.77507      2.85614        -0.330826     -0.717244     -0.455794
O       7.80224      9.65350     16.07488        -0.127267      0.449202     -1.087441
O       7.70191      9.78207      7.28888         0.272523     -0.160354     -0.253399
O       7.79899      9.63447     11.73938         0.146703      0.782198     -0.845796
O      11.67035      1.87635      2.78989        -0.476507      0.497203     -0.276029
O      11.69644      1.81427     15.98826        -0.587037      1.107107     -0.389393
O      11.62118     13.53516      2.86008         0.058983      0.100890     -0.375232
O      11.70110     13.65667     16.02125        -0.206245     -0.255306     -0.118059
O      11.49921      1.92305      7.08155         1.254694     -0.055077      0.144234
O      11.49582     13.71424      7.33503         0.806217     -0.620867     -0.453668
O      11.69980      1.91903     11.77985         0.054382      0.378246     -0.637002
O      11.67102     13.67833     11.66148        -0.964927     -0.051209     -0.042732
O      11.67065      5.95436      2.82892        -0.200165     -0.467615     -0.248847
O      11.72570      5.73866     16.02704        -0.344827      0.331543     -0.997044
O      11.63916      5.94472      7.29797         0.236201     -0.478086     -0.445010
O      11.65392      5.86060     11.67015        -0.291383     -0.082831      0.013209
O      11.59602      9.80723      2.85062        -0.257281     -0.477847      0.074779
O      11.63721      9.86384     16.16944         0.219829     -0.263335     -0.553060
O      11.62818      9.57094      7.08600         0.157366      0.377240      0.339432
O      11.77902      9.84182     11.63735        -1.603098     -0.504357     -0.169662
O       1.71051      3.94890      2.76914         1.157637     -1.210506     -0.522688
O       1.98252      3.78295     15.94695        -0.169115      0.644370      0.441094
O       1.82804     15.58774      2.77985         0.031396     -0.229405     -0.180430
O       2.02957     15.58584     16.01324        -0.020978     -1.004204     -0.428965
O      13.54929      3.94065      2.66836         0.125924     -0.810679      0.284030
O      13.78606      3.86449     15.97784        -0.659456      0.248346     -0.091167
O      13.50451      0.01663      2.67971         0.034740     -1.118984      0.261631
O      13.62426      0.00035     16.09889         0.629392     -0.738873     -0.421578
O       2.01872      3.83355      7.24736        -0.286483      0.457920     -0.812030
O       1.81328      0.04691      7.32861        -0.122538     -0.387617     -0.487651
O      13.48423      3.88792      7.31117         0.336316     -0.367896     -0.658672
O      13.50911      0.03846      7.24305        -0.018911     -0.091932     -0.190044
O       1.86175      3.96542     11.60191        -0.195634     -0.640055     -0.463319
O       1.94348     15.53208     11.62244         0.010357      0.509328     -0.040431
O      13.63105      3.98523     11.79047        -0.222130     -1.093515     -0.674203
O      13.60792      0.00367     11.66500         0.232291      1.027882      0.115699
O       1.84035      7.77385      2.88605         0.277423      0.344124     -0.820748
O       1.93339      7.69155     16.04052        -0.723327      1.499124     -0.451182
O      13.61344      7.73016      2.96652        -0.087115      0.844523     -0.659919
O      13.60721      7.74186     16.23920        -0.008576      0.851262     -1.049557
O       1.91243      7.77391      7.19672         0.109734      0.136896     -0.706752
O      13.70716      7.77195      7.31796        -0.191409     -0.138465     -0.475815
O       1.84980      7.79084     11.76202         0.211739     -0.466833     -0.475020
O      13.60000      7.78593     11.57478        -0.443044      0.942535     -0.035485
O       1.88179     11.69364      2.78895        -0.281238     -0.301512      0.052913
O       1.78425     11.57314     16.10795         0.899231      0.850355     -0.317669
O      13.58067     11.61833      3.02587         0.225062      1.198882     -0.161693
O      13.71451     11.71293     16.01990        -0.342878      0.625019      0.318887
O       1.93032     11.69720      7.15597        -0.492201     -0.055740      0.261422
O      13.47993     11.64820      7.32389         0.236887      0.550587     -0.630331
O       1.70572     11.59682     11.57137         1.249012      0.935943     -0.207404
O      13.57360     11.78779     11.65709         0.108023     -1.166352     -0.669283
O       5.78089      3.85363      2.85600        -0.238390     -0.091584     -0.838751
O       5.89753      3.92004     16.05544        -0.413305     -0.499067     -0.600528
O       5.73928     15.51852      2.66294         0.492817      0.914983      0.160228
O       5.82892      0.01938     16.07448         0.285066     -1.014299     -1.059399
O       5.67777      3.86449      7.07428         0.274474      0.143503      0.155040
O       5.89113     15.54831      7.21184        -0.448790      1.281819     -0.269190
O       5.84385      3.92393     11.45851         0.098653     -0.226743     -0.304168
O       5.72752      0.05375     11.70076        -0.255188     -0.553461     -0.373966
O       5.68817      7.71972      2.73472         0.653199      0.309855     -0.432862
O       5.79297      7.79683     16.24071        -0.090050      0.069626     -1.072114
O       5.85026      7.87201      7.16535        -0.127425     -0.478039     -0.316973
O       5.73038      7.84312     11.59184         0.404718     -0.461322     -0.199894
O       5.73596     11.70610      2.75469         0.128835     -0.333264     -0.307045
O       5.87619     11.55287     16.06998        -0.472900      1.010123     -0.642379
O       5.83322     11.72870      7.31319        -0.515057     -0.965465     -0.391878
O       5.86984     11.70038     11.73714        -0.269753     -0.399702     -0.459215
O       9.74928      3.92424      2.79839         0.107516     -0.214641     -0.593610
O       9.64413      3.95863     16.11730         0.714343     -0.791656     -1.397227
O       9.64760     15.59502      2.80085         0.656906      0.223539     -0.405142
O       9.69465      0.02589     16.18105         0.011402     -0.455962     -1.191804
O       9.81189      3.91177      7.18919        -0.343214      0.052271     -0.156425
O       9.55539     15.56714      6.98834        -0.086551      0.410920      0.282223
O       9.78419      3.85593     11.63083        -0.475590     -0.001383     -0.354255
O       9.78592     15.55004     11.81750        -0.439060      0.227453     -0.935843
O       9.59135      7.71590      2.86165         0.259869      1.115653     -0.702689
O       9.79380      7.81200     15.90811         0.042514      0.182561     -0.309817
O       9.65425      7.76234      7.24249        -0.267574     -0.012887     -0.336787
O       9.76112      7.81419     11.73891         0.213266      0.049086     -0.638783
O       9.47810     11.66127      2.66898         0.894375      0.517477      0.143772
O       9.70869     11.74219     16.33862        -0.079974     -0.024830     -1.939771
O       9.64492     11.60960      7.21078         0.330020      0.856890      0.274826
O       9.66815     11.75602     11.59580        -0.163292     -0.796756     -0.394664
