  # total energy = -7866.19472596 
CRSYTAL
PRIMVEC
    15.010000000000000    0.0000000000000000    0.0000000000000000
     0.0000000000000000   15.010000000000000    0.0000000000000000
     0.0000000000000000    0.0000000000000000    16.400000000000000
PRESSURE
19.4096 19.2189 10.8902 0.16437 -0.234148 0.008778
PRIMCOORD
320 1
Pb       3.82636      3.85426      4.16495        -0.459877     -0.266252      0.080221
Pb       3.76720      3.70742      0.07302        -0.533127     -0.171645     -0.241192
Pb       3.66946      0.03987      4.06780         0.296459     -0.196502      0.595350
Pb       3.65884     14.92378      0.00063        -0.130771      0.397483      0.226709
Pb      15.00297      3.66416      4.02115        -0.238970      0.456159      0.938663
Pb       0.06279      3.68028     16.36339        -0.207250      0.120682      0.339620
Pb       0.04472     14.97839      4.00988        -0.771524      0.540765      1.581387
Pb      14.94174     14.93219      0.08126         0.279383      0.582487     -0.527053
Pb       3.79199      3.78745      8.21911        -0.353576     -0.498035      0.235022
Pb       3.67621     14.91715      8.13246        -0.087946      0.067420      0.699710
Pb      14.98112      3.77097      8.26291         0.184583     -0.049995      0.181826
Pb      14.95763     15.00094      8.16541         0.826888     -0.297337      1.191815
Pb       3.58116      3.77158     12.30100         0.870667     -0.184797     -0.116469
Pb       3.73463     14.98212     12.33700         0.113488      0.001215     -0.354956
Pb      15.00353      3.66272     12.36830        -0.715046      0.060099      0.066087
Pb      14.99776     14.96766     12.38582        -0.329714     -0.121443     -0.200830
Pb       3.76365      7.40490      4.04325        -0.358436      0.073809      0.447969
Pb       3.71234      7.38253      0.04352        -0.004689      0.402866      0.279249
Pb      14.96162      7.44913      4.10858         0.133711      0.106138      0.201043
Pb      15.00723      7.51788     16.37005        -0.255368     -0.368731      0.413285
Pb       3.75290      7.47036      8.05700        -0.309045      0.062560      1.041648
Pb      14.94144      7.47414      8.27832         0.636689      0.165114     -0.193105
Pb       3.75950      7.62916     12.26908        -0.466061     -0.678767      0.220634
Pb       0.01518      7.44006     12.39119         0.216016      0.256506     -0.112882
Pb       3.72752     11.32402      4.20478         0.024390     -0.591305     -0.380886
Pb       3.76163     11.20395     16.30452         0.073044      0.085811      1.118121
Pb       0.05198     11.28474      4.05852        -0.782037     -0.370648      0.895153
Pb      14.96310     11.24796     16.39697         0.536647     -0.368097      0.191050
Pb       3.85243     11.23864      8.15306        -0.599736      0.122870      0.861403
Pb      14.95735     11.25076      8.27844         0.348498      0.452285     -0.214261
Pb       3.76253     11.34716     12.27401         0.476487     -0.289042      0.557669
Pb       0.01520     11.26133     12.33137        -0.008063      0.092545      0.329176
Pb       7.51169      3.59773      4.06214        -0.285959      0.587690      0.567388
Pb       7.47578      3.74463     16.32406         0.298532     -0.127125     -0.134451
Pb       7.45083     14.94720      4.05792         0.611389     -0.183220      0.021284
Pb       7.38252      0.02845      0.01747         0.996431     -0.288607      0.615041
Pb       7.46630      3.72859      8.18838         0.047072     -0.121869      0.174722
Pb       7.57920      0.02375      8.16005        -0.436574     -0.416263      0.605018
Pb       7.47579      3.73313     12.22970        -0.156796     -0.259408      1.018387
Pb       7.51465     14.90873     12.38488        -0.361386      0.603167     -0.019410
Pb       7.46763      7.53480      4.02091         0.309510      0.046724      0.640423
Pb       7.47732      7.55576      0.01229        -0.140315      0.092605     -0.005229
Pb       7.42120      7.54989      8.26751         0.470522     -0.005046      0.372863
Pb       7.46246      7.44195     12.32848         0.314711      0.086570      0.148346
Pb       7.64097     11.31177      4.09469        -1.016173     -0.171122      0.300218
Pb       7.55509     11.20907     16.39274        -0.585413      0.308401      0.679419
Pb       7.51289     11.28663      8.17129         0.261153      0.038983      0.527415
Pb       7.48971     11.17465     12.33124        -0.266705      0.202814     -0.386652
Pb      11.17799      3.74639      4.02597         0.297631     -0.210091      1.020387
Pb      11.19055      3.63263     16.34149         0.384526      0.576585      0.445883
Pb      11.24186      0.01397      4.07108         0.001152      0.055557      0.517001
Pb      11.10792     14.89362      0.08780        -0.001172      0.249659     -0.132814
Pb      11.14132      3.74585      8.10422         0.338140     -0.025213      0.837003
Pb      11.19215      0.04157      8.18442         0.051194     -0.352985      0.505924
Pb      11.27855      3.70076     12.38134        -0.193850      0.006870     -0.539354
Pb      11.22828      0.07475     12.31833         0.161903     -0.107161     -0.007404
Pb      11.28381      7.45877      4.10537        -0.798571     -0.021267      0.833931
Pb      11.24720      7.53205     16.38621         0.270419     -0.184168     -0.056360
Pb      11.19344      7.48746      8.22394         0.161702      0.246495      0.342670
Pb      11.36119      7.51732     12.31337        -0.570358     -0.167524     -0.139392
Pb      11.40997     11.17452      4.10252        -0.512542      0.999069      1.015911
Pb      11.35547     11.16354      0.02403        -0.631695      0.107541     -0.096619
Pb      11.22821     11.16280      8.21704        -0.150992      0.586935      0.033528
Pb      11.26916     11.29795     12.28367        -0.159743     -0.458586      0.107839
Ti       1.85157      1.85083      2.21379         0.743407      1.178999     -1.926879
Ti       1.87481      1.80820     14.40824        -0.610243     -0.424557      1.276512
Ti       1.82261     13.13707      2.08542         1.162198     -1.048592     -0.402645
Ti       1.85282     13.08301     14.40124         0.444320      0.935170     -0.076774
Ti      13.09346      1.86391      2.14363        -0.210624     -0.440051     -0.788607
Ti      13.11061      1.74899     14.51850         0.290326      0.681961      1.699800
Ti      13.18909     13.11895      2.18001        -1.406140      0.062224      1.968359
Ti      13.10271     13.10365     14.42767         0.114094      0.456383     -0.646620
Ti       1.80714      1.89997      6.25227         1.229060     -0.645924      0.521877
Ti       1.86024     13.07842      6.16605        -0.686557      0.486737      1.875867
Ti      13.11893      1.91021      6.25438         0.398453     -0.660992      0.138416
Ti      13.16784     13.15080      6.18408         0.408267      0.067999     -0.257480
Ti       1.75510      1.81953     10.43514         1.219437      0.025585     -0.543818
Ti       1.79466     13.12142     10.37398         0.571192      0.557995     -0.845252
Ti      13.09398      1.82296     10.24506        -0.375388      0.591864      0.499083
Ti      13.10125     13.14136     10.37554        -0.529499      0.877956     -0.560116
Ti       1.78040      5.62399      2.16574         0.820144     -0.104081     -1.131937
Ti       1.89654      5.61910     14.38919        -0.533067     -0.198857      1.228779
Ti      13.04414      5.57009      2.18122         0.059597      0.175857     -1.244346
Ti      13.12084      5.52232     14.44493        -0.270960      0.918018      1.728045
Ti       1.84890      5.58179      6.22234         0.572955      0.711113      0.308149
Ti      13.14003      5.63079      6.24459         0.174850     -0.511559     -0.950823
Ti       1.73728      5.66877     10.33274         1.943279      0.266131      1.143805
Ti      13.07565      5.61280     10.35920        -0.149315     -0.694066     -0.201092
Ti       1.80694      9.37570      2.26409         0.251458     -0.441261     -1.455788
Ti       1.85635      9.37834     14.51260         0.059807     -0.423936     -1.179383
Ti      13.04283      9.28391      2.17221         1.592658      1.104454     -0.747744
Ti      13.14501      9.40038     14.32651        -0.752653     -2.081050      1.002321
Ti       1.83552      9.37190      6.20047         0.099457     -0.234910     -0.377282
Ti      13.13602      9.42267      6.29004        -0.248819     -0.096765     -0.348356
Ti       1.86358      9.45933     10.36773         1.027179     -1.718052     -1.205372
Ti      13.24949      9.40501     10.31716        -1.796692     -0.481874      0.414506
Ti       5.54311      1.81757      2.14336        -0.048055      0.060668     -0.093875
Ti       5.59168      1.80946     14.47830        -0.150331      0.985451     -0.907283
Ti       5.53756     13.08153      2.21071         1.031644     -1.168289     -1.143591
Ti       5.63511     13.14707     14.54030        -0.835476     -1.093142     -0.767766
Ti       5.56035      1.76364      6.21110         0.176321      0.782902     -0.477786
Ti       5.66397     13.09475      6.19580         0.133055      0.303695     -0.585198
Ti       5.62057      1.77709     10.37422        -1.344327      0.756707      0.296533
Ti       5.63208     13.11986     10.36034        -0.487194     -0.071328     -0.717244
Ti       5.71116      5.56739      2.12021        -1.449970      0.401488     -0.352643
Ti       5.62933      5.57544     14.44391        -0.161624      1.097093     -0.285089
Ti       5.68380      5.55302      6.25070        -0.409007      1.050752     -0.706330
Ti       5.56155      5.58138     10.40631        -0.906174     -0.634392      0.205584
Ti       5.49383      9.34284      2.19194         1.398751      0.777677     -1.172883
Ti       5.57705      9.38092     14.41045        -0.190496     -0.573723      0.302731
Ti       5.57080      9.39063      6.22003         1.002069     -1.149617      1.583858
Ti       5.66243      9.29111     10.33390        -0.839492      1.701396     -0.874443
Ti       9.31336      1.87922      2.12405         0.721800     -1.165501     -0.214435
Ti       9.39098      1.88435     14.42343        -0.927362     -0.710271     -1.003826
Ti       9.44032     13.09829      2.16256        -0.565700      1.269779      0.144571
Ti       9.32755     13.12130     14.36651         0.532546      0.666035      0.650738
Ti       9.35076      1.94406      6.17151         0.225036     -1.365956     -0.127778
Ti       9.44990     13.18272      6.25756         0.482146     -0.435144     -0.115645
Ti       9.29197      1.86114     10.35712         1.113455      0.038246      0.059898
Ti       9.36256     13.14226     10.43565        -0.180615     -0.224932     -1.042356
Ti       9.33278      5.59047      2.08765         0.233625      1.444444     -0.267636
Ti       9.39510      5.69656     14.45344        -0.532222     -0.306221      0.190814
Ti       9.38455      5.72127      6.22667        -0.230538     -1.135187      0.018946
Ti       9.29665      5.58974     10.33078         1.012198      0.343311      0.299053
Ti       9.41340      9.40520      2.22343        -1.521020     -0.870812     -1.040452
Ti       9.33631      9.44347     14.47032         0.730549     -0.428593     -1.302978
Ti       9.31738      9.35594      6.21196         0.259984      0.705633     -0.808778
Ti       9.44079      9.38000     10.35731        -0.600362     -0.098705      0.025128
O       1.98630      1.87073      0.37468        -0.407332      0.202473      0.350306
O       1.70020      1.75982     12.65013         0.412669      0.143400     -0.613297
O       1.82640     13.12846      0.27635        -0.142188     -0.231052      0.418609
O       1.82984     13.08730     12.60317         0.016342      0.362725     -0.295198
O      13.02479      1.92686      0.31471         0.199627     -0.396758      1.302169
O      13.04193      1.71078     12.80962         0.206388      0.343048     -2.133724
O      13.21347     13.13540      0.45641        -0.124121     -0.232280     -2.466732
O      13.11489     13.10761     12.61241         0.039269     -0.071831      1.194982
O       1.71609      1.85398      4.47609         0.533030      0.085121     -1.152685
O       1.75719     13.14290      4.42573         0.382489     -0.077727     -1.107147
O      13.22067      1.84251      4.49274        -0.175770      0.151758     -0.563716
O      13.16182     13.11090      4.37359         0.216347     -0.160399      0.562028
O       1.79708      1.77368      8.65427         0.302554      0.569193     -0.376036
O       1.75308     13.08687      8.56460         0.212392     -0.385194     -0.185689
O      13.15308      1.82854      8.43418        -0.125345      0.265961      0.594619
O      13.14291     13.15261      8.59485        -0.174909      0.016098     -0.728705
O       1.81119      5.66833      0.32173        -0.037152     -0.458808      0.605980
O       1.81106      5.74277     12.61818         0.011040     -0.300722      0.313651
O      13.00421      5.71561      0.38124         0.288859     -0.663446      0.579837
O      13.13359      5.54002     12.70426        -0.276574      0.487106     -1.715866
O       1.78071      5.57724      4.43781         0.219464      0.345366     -0.712708
O      12.97870      5.60214      4.38977         0.551629      0.339936      1.278877
O       1.75864      5.65344      8.56542         0.303804     -0.414274     -0.580438
O      13.15638      5.53208      8.54127         0.033076      0.233451      0.131376
O       1.82730      9.33271      0.40967         0.144312      0.425666     -0.209629
O       1.83694      9.34313     12.67606        -0.129942     -0.158755      0.309218
O      12.91287      9.33846      0.36954         0.702276      0.353283      0.153218
O      13.23075      9.43171     12.54860        -0.590589     -0.333324     -0.027457
O       1.92947      9.28941      4.35095        -0.728501      0.296859      0.985483
O      12.99914      9.45398      4.48549         0.654621     -0.648335     -0.048126
O       1.78282      9.38936      8.52025         0.165214      0.449639      0.905903
O      13.20108      9.27981      8.50093        -0.508028      0.510085     -0.375093
O       5.47484      1.84596      0.33737         0.339398      0.448519      0.422230
O       5.59992      1.76847     12.70611        -0.141171      0.100685     -0.155971
O       5.48793     13.07365      0.37461         0.300803     -0.030314      0.345496
O       5.63169     13.07917     12.72436        -0.157133      0.326329     -0.020568
O       5.56852      1.93620      4.38335         0.199653     -0.735362      0.493081
O       5.73947     13.17301      4.35325        -0.661760     -0.475927      0.918783
O       5.51604      1.78415      8.59542         0.192540      0.073156     -0.976701
O       5.63483     13.13732      8.54343         0.159823     -0.061358     -0.532159
O       5.88468      5.71100      0.27404        -0.957414     -0.703265      1.259479
O       5.46643      5.65376     12.66675         0.693042     -0.065775     -0.666932
O       5.50872      5.62314      4.41968         0.616050     -0.236080      0.746862
O       5.52400      5.55613      8.61362         0.470049     -0.159136     -0.996634
O       5.48349      9.34382      0.35793         0.159770      0.008386      0.484506
O       5.60392      9.36699     12.59406         0.174234      0.062531      0.055072
O       5.51657      9.28933      4.48634         0.388436      0.221511     -0.994938
O       5.58040      9.43233      8.48766         0.243467     -0.159853      0.874116
O       9.38111      1.82548      0.32262        -0.078535      0.037188     -0.528368
O       9.30240      1.71730     12.55727         0.299453      0.793232      1.090231
O       9.31855     13.14416      0.38972         0.442567     -0.199361     -0.595877
O       9.21663     13.06850     12.56783         0.496111      0.205633      0.730859
O       9.41027      1.87603      4.35041        -0.638639      0.242278      0.603261
O       9.42772     13.22466      4.47408        -0.273836     -0.207883     -0.027347
O       9.33168      1.89237      8.53333        -0.213165      0.124100      0.021979
O       9.35713     13.17618      8.61748         0.183789     -0.375787     -0.899762
O       9.23973      5.50976      0.29602        -0.002030      0.593130      0.019900
O       9.30375      5.62630     12.68537         0.479802      0.239851     -0.832108
O       9.29085      5.66279      4.46349         0.612312     -0.170546     -0.278832
O       9.18423      5.46962      8.53389         0.687291      0.518009     -0.192097
O       9.57219      9.48614      0.37330        -0.800232      0.318038      0.381378
O       9.33860      9.47596     12.61374        -0.002611     -0.545438      0.648150
O       9.35270      9.25489      4.36350        -0.210293      0.515822      0.967144
O       9.47265      9.40142      8.53347        -0.380100      0.004207      0.351125
O       3.68470      1.92850      2.53278         0.431822     -0.197712      0.133056
O       3.68766      1.92332     14.79167         0.819975     -0.293589     -0.400447
O       3.65786     13.07004      2.58400        -0.001015     -0.032775     -0.282713
O       3.72544     13.13858     14.63389         0.084411     -0.122063      0.482110
O       0.03618      1.89069      2.30215        -2.032512     -0.353247      0.324300
O      14.95344      1.85990     14.83479         0.899470     -0.546017     -0.024628
O       0.01017     13.23213      2.47018         0.079583     -0.464952     -0.357046
O      15.00999     13.23600     14.70209        -1.390541     -0.326227      0.341997
O       3.75894      1.72221      6.53317        -1.099376      0.214336      0.037380
O       3.76686     13.09177      6.48325        -0.351118      0.223489     -0.197190
O       0.06884      2.13540      6.62939        -2.297335     -0.460918     -0.270312
O      15.00406     12.73487      6.52162         0.542545      0.944292     -0.247017
O       3.66160      1.87123     10.81790         0.180272     -0.212410     -0.478305
O       3.72028     13.21132     10.49052        -0.467802      0.164129      0.865128
O      14.89488      1.78817     10.77020         0.188558      0.650419     -0.203216
O      14.90923     13.11946     10.64777         1.701911     -0.297024      0.413778
O       3.72745      5.55757      2.40819         0.188970      0.120667     -0.351508
O       3.72937      5.56842     14.82838        -0.121774     -0.019660     -0.091802
O      14.87367      5.68948      2.45708         0.765568      0.239359      0.009263
O      14.93830      5.68733     14.79997         1.634397     -0.121569     -0.335962
O       3.75510      5.65451      6.48930        -0.215814      0.672451      0.299182
O       0.02779      5.42308      6.47907        -1.686875      0.076198      0.270689
O       3.69336      5.64372     10.75540        -0.589436     -0.365003     -0.697346
O      14.95603      5.67163     10.71436        -0.824367     -0.215793      0.010570
O       3.68753      9.42995      2.49860        -0.164873     -0.203600     -0.038742
O       3.68261      9.53725     14.68268         1.079020     -0.618415      0.034281
O      14.92898      9.22257      2.41748        -0.265116      0.036202      0.328800
O      14.98969      9.41115     14.79956        -0.330811     -0.454930     -0.021876
O       3.71981      9.23005      6.51138         0.518855      0.327300      0.014868
O       0.00591      9.58001      6.49207        -0.959774     -0.179942     -0.199385
O       3.78468      9.25831     10.58184        -1.303269      0.460855      0.091344
O      15.00227      9.26648     10.70881         0.702490      0.759719     -0.288714
O       7.45788      1.79764      2.31484        -1.177253      0.164350      0.440183
O       7.46734      1.82242     14.68499         0.346112      0.185718      0.623051
O       7.54236     13.13196      2.43085        -1.235921      0.130340      0.173124
O       7.44865     13.13734     14.79081         1.226455      0.166580      0.185541
O       7.46631      1.89305      6.42797        -0.293117      0.072379      0.285237
O       7.56234     13.10208      6.44362        -0.546414     -0.114413      0.381319
O       7.46848      1.95604     10.65316        -0.149766     -0.342013     -0.229695
O       7.42878     13.17164     10.68147         0.942653     -0.679723     -0.039897
O       7.47854      5.61207      2.61360         0.157907     -0.335715     -0.659163
O       7.48355      5.75921     14.62580         0.557516     -0.380898      0.276109
O       7.53295      5.45683      6.47314        -1.064303     -0.086300      0.251698
O       7.46433      5.53893     10.70483        -0.175042      0.340153      0.009075
O       7.45551      9.30642      2.42258         0.189920      0.683615     -0.046715
O       7.43668      9.41089     14.80668         0.769902     -0.095539     -0.161485
O       7.51448      9.46572      6.63588        -0.749475      0.009525     -0.405236
O       7.48735      9.30292     10.61322         0.607667      0.740339     -0.011360
O      11.19742      1.84376      2.40262         0.722029      0.215279      0.063669
O      11.22008      1.89704     14.66225        -0.506396     -0.152205      0.346704
O      11.31096     13.30079      2.48550        -0.492773     -1.003381     -0.606699
O      11.23946     13.12378     14.69901        -0.579208     -0.679904      0.062683
O      11.21554      1.76753      6.57395         0.640137     -0.155367     -0.441692
O      11.36133     13.38299      6.50638        -1.426141     -0.190034      0.215853
O      11.23834      1.83236     10.69499        -0.506434     -0.247845     -0.268135
O      11.23501     13.07712     10.75787        -0.290742      0.487613     -0.258954
O      11.16764      5.49168      2.51962        -0.427982      0.618777     -0.552523
O      11.23640      5.66149     14.76022        -0.222826     -0.216180     -0.203461
O      11.30352      5.68656      6.64518        -1.701289      0.480044     -0.284433
O      11.25193      5.68232     10.70264        -1.084618     -0.309845     -0.038676
O      11.24353      9.43543      2.56554        -0.636188      0.183247     -0.275890
O      11.22054      9.50004     14.75979         0.583531     -0.003796     -0.748343
O      11.15002      9.23672      6.53503         1.791190     -0.251929      0.237166
O      11.28453      9.38765     10.65131         0.250347      0.108259      0.017856
O       1.67742      3.78905      2.35253         0.665497     -0.803165      0.288376
O       1.83341      3.67570     14.57648        -0.398951      1.728433      0.448764
O       1.87155     14.97295      2.43037         0.277745      0.578484     -0.066561
O       1.86588     14.97620     14.74848         0.019305      0.165909      0.078805
O      13.04686      3.68233      2.59953         0.475776      0.530037     -0.840347
O      13.10554      3.70174     14.78198        -0.103252      0.070179     -0.127160
O      13.16935      0.02033      2.60577        -0.010478      0.397241     -1.146618
O      12.90904     14.93868     14.95377         1.210733     -0.311218     -0.519450
O       1.97656      3.74560      6.53803         0.662841     -0.036183      0.436888
O       1.72699     14.99406      6.56365         0.101636     -0.607406     -0.378530
O      12.88793      3.74437      6.47164         0.747968      0.081570      0.095143
O      13.49001     14.97233      6.51608        -0.928250      0.855647     -0.866146
O       1.66648      3.73865     10.76875         0.710732      0.339008     -0.494563
O       1.73537     14.95010     10.67848         0.296481      0.403563      0.314103
O      12.99670      3.68816     10.76776         0.862231      0.254458     -0.483130
O      13.12454      0.03709     10.77098        -0.458161     -0.837109     -0.496817
O       1.91644      7.46940      2.43055        -0.338775      0.166998      0.283233
O       1.96541      7.49604     14.85849        -0.574793     -0.088801     -0.773916
O      12.88129      7.50345      2.49734         0.619442     -1.189551     -0.201173
O      13.03553      7.52899     14.76302         0.218315      0.298363     -0.667317
O       1.70839      7.50769      6.59037         0.065468     -0.479554     -0.405469
O      13.28240      7.49136      6.49358        -0.166169      0.269442     -0.005782
O       1.78676      7.55440     10.66879         0.199736     -0.642507     -0.126982
O      13.05678      7.47940     10.56338         0.325050      0.568037      0.419103
O       1.68700     11.25541      2.42622         0.442751      0.309092     -0.145195
O       1.81041     11.26893     14.61702        -0.449116     -0.342938      0.845054
O      13.17155     11.23507      2.47123        -0.068995      0.033400     -0.436001
O      13.18294     11.18500     14.68326        -0.019267      2.205048      0.591226
O       2.03285     11.22244      6.36631         0.264621     -0.211522      0.304980
O      12.93546     11.30646      6.50361        -0.397287     -1.559972      0.448957
O       1.95361     11.25810     10.82272        -0.786977     -0.202443     -0.913020
O      13.18857     11.27730     10.57068        -0.339242     -1.407715      0.127148
O       5.50031      3.69482      2.49601         1.103395      0.647152     -0.761085
O       5.64875      3.74971     14.64932         0.037165     -0.662843      0.695231
O       5.44228     14.91935      2.38019         0.325701      1.736738      0.313546
O       5.59995     15.00504     14.96923        -0.477245     -0.427118     -0.918119
O       5.41014      3.73697      6.47642         0.663079     -0.943786      0.351921
O       5.56969     14.90781      6.46287         0.635550      1.185027      0.134485
O       5.61279      3.68601     10.65305        -0.478573      0.409057      0.257121
O       5.66252     15.00084     10.81320        -0.432805     -0.249463     -0.336726
O       5.60848      7.45487      2.48444        -0.359981     -0.321846     -0.384536
O       5.60239      7.52459     14.69043        -0.490822      0.255207      0.205557
O       5.78299      7.48197      6.73325        -0.778973     -0.191205     -1.347830
O       5.66095      7.46195     10.57968         0.044328     -0.271394      0.259425
O       5.51830     11.21955      2.49357         0.571279      0.031454      0.231071
O       5.65572     11.23591     14.83835        -0.179313      0.408467     -0.264614
O       5.64816     11.25264      6.58971        -0.397861     -0.369763     -0.588438
O       5.46764     11.27798     10.63027         0.718686     -0.981350     -0.092358
O       9.29579      3.75706      2.31257        -0.307973     -0.714479      0.638482
O       9.39610      3.73928     14.72960        -0.675980      0.343278     -0.216382
O       9.36992      0.01034      2.54234        -0.196893     -0.259541     -0.567769
O       9.32211     14.98971     14.71063         0.255510     -0.167752      0.209100
O       9.38664      3.73029      6.49036         0.407365      0.674581     -0.012109
O       9.32398      0.03578      6.68211         0.028121     -0.011147     -0.794150
O       9.40091      3.73591     10.61281         0.064536      0.083136      0.509860
O       9.22965     14.98655     10.56121         0.439796      0.811903      0.337647
O       9.34351      7.52040      2.32828         0.312461     -0.832769      0.091100
O       9.39532      7.61196     14.76894        -0.164167     -1.062432     -0.101581
O       9.16916      7.50066      6.56177         0.447985     -0.109739      0.340501
O       9.32441      7.47633     10.52623         0.248050      0.289583      0.471585
O       9.30121     11.27935      2.57193         0.941508     -0.343253     -0.541201
O       9.29461     11.30077     14.70493        -0.059345      0.106495      0.335703
O       9.51687     11.24976      6.50235        -0.101975      0.676994      0.010575
O       9.35282     11.29430     10.66250        -0.252230     -1.566834     -0.187023
