  # total energy = -7881.38022363 
CRSYTAL
PRIMVEC
    15.6000000000000000    0.0000000000000000    0.0000000000000000
     0.0000000000000000   15.6000000000000000    0.0000000000000000
     0.0000000000000000    0.0000000000000000    17.640000000000000
PRESSURE
-5.88913 -5.90338 -5.37526 0.096398 -0.137685 -0.020838
PRIMCOORD
320 1
Pb       3.95967      3.90270      4.31742        -0.413675     -0.410054      0.063896
Pb       3.91762      3.79768     17.58425        -0.295215      0.243476     -0.356296
Pb       3.85746     15.56766      4.41791        -0.105302      0.022098     -0.901814
Pb       3.91546      0.04788     17.60122        -0.160308     -0.485810      0.109687
Pb      15.52054      3.84715      4.31332         0.218313      0.036817      0.175025
Pb       0.01785      3.78227     17.51189         0.100941      0.267072      0.753871
Pb       0.01545      0.02146      4.34929        -0.064606     -0.112568     -0.228624
Pb       0.04295     15.57317      0.03201        -0.635543     -0.273867     -0.264776
Pb       3.87443      3.87706      8.74922        -0.328392      0.264508     -0.232238
Pb       3.88202      0.02784      8.79491        -0.151600     -0.571103     -0.214935
Pb       0.03692      3.85552      8.82835        -0.311423      0.192306     -0.912676
Pb      15.57224      0.10478      8.79512        -0.084448     -0.478910     -0.005285
Pb       3.85504      3.96836     13.16006        -0.157161     -0.129450      0.046069
Pb       3.96385      0.09109     13.19220        -0.255505     -0.390798     -0.221332
Pb       0.01348      3.89552     13.23801         0.074807      0.168268     -0.611963
Pb      15.53564     15.55608     13.22681        -0.077592     -0.183447     -0.620041
Pb       3.91641      7.77029      4.26598        -0.084114      0.112715      0.063021
Pb       3.88960      7.76119     17.57374        -0.202864      0.279045     -0.418187
Pb      15.56176      7.59541      4.37359        -0.182501      0.195475     -0.425280
Pb      15.55959      7.76135     17.57895         0.051458      0.203372     -0.179631
Pb       3.79994      7.74578      8.75732         0.291518      0.047265     -0.152012
Pb       0.05107      7.85011      8.69296        -1.037942     -0.397526     -0.088221
Pb       3.89941      7.83284     13.18802        -0.033711      0.226388     -0.540322
Pb      15.56503      7.76433     13.16758        -0.304249      0.271565     -0.255564
Pb       3.90223     11.60724      4.32004         0.055640      0.220830     -0.290556
Pb       3.84483     11.64861     17.55566         0.043021      0.094715     -0.288628
Pb       0.07415     11.72472      4.42009        -0.472591      0.065760     -0.530413
Pb       0.03666     11.62200     17.63289        -0.239960      0.313067     -0.427348
Pb       3.86776     11.75292      8.80408        -0.007596      0.288447     -0.255241
Pb       0.01453     11.55789      8.73239         0.048415      0.531402      0.143352
Pb       3.92344     11.57552     13.19912         0.053190      0.339622     -0.285480
Pb       0.04945     11.70108     13.22604        -0.574812     -0.047722     -0.097263
Pb       7.75196      3.87305      4.28036         0.251249      0.174948      0.494114
Pb       7.84048      3.86804     17.63404         0.004870      0.120578     -0.901142
Pb       7.81319     15.58434      4.39272        -0.046246     -0.227264     -0.359534
Pb       7.77153     15.54647     17.57685         0.360759     -0.374365     -0.009674
Pb       7.84325      3.89869      8.77567        -0.005566      0.191272     -0.162916
Pb       7.72334      0.05651      8.74744         0.201010     -0.381883     -0.296610
Pb       7.64326      3.82471     13.21534         0.391775      0.158073      0.008649
Pb       7.78748      0.01978     13.12056         0.090701      0.127393      0.122720
Pb       7.71772      7.71261      4.31567         0.134286      0.151412      0.495526
Pb       7.78161      7.73041     17.50866         0.335953     -0.040081     -0.130964
Pb       7.80009      7.82453      8.79397         0.302545     -0.004457     -0.186693
Pb       7.85995      7.66853     13.23922         0.240955      0.416738     -1.087606
Pb       7.70301     11.56978      4.29491         0.209002      0.103177     -0.195409
Pb       7.79111     11.63116     17.48308         0.187243      0.693798      0.035845
Pb       7.76790     11.64505      8.65807         0.053301      0.284199      0.395956
Pb       7.74536     11.63423     13.19624        -0.212450     -0.173125     -1.077875
Pb      11.73751      3.81786      4.26059        -0.313190      0.679252      0.254918
Pb      11.57138      3.84162     17.55403         0.410324      0.475010      0.500198
Pb      11.77140      0.04127      4.30312        -0.279936     -0.360927      0.560985
Pb      11.79352      0.03913     17.58628         0.007042     -0.434591     -0.371294
Pb      11.70336      3.88278      8.77720         0.472100      0.022221     -1.024484
Pb      11.55879      0.02337      8.78862         0.330057     -0.513525     -0.224012
Pb      11.65600      3.82213     13.18355        -0.090867      0.487813     -0.369644
Pb      11.68360      0.08438     13.23910        -0.022333     -0.683938     -0.743489
Pb      11.61848      7.82389      4.41370         0.505276     -0.010281     -0.230700
Pb      11.76851      7.83474      0.00291        -0.250064     -0.148536     -0.450514
Pb      11.75347      7.80072      8.78339         0.164849      0.189839     -0.441425
Pb      11.66571      7.85130     13.15391        -0.151817     -0.142461     -0.285202
Pb      11.68539     11.61854      4.49899         0.058450     -0.271116     -0.565923
Pb      11.57486     11.74979      0.08779         0.017055     -0.163608     -0.887711
Pb      11.56426     11.76633      8.90595         0.059032      0.013145     -0.295339
Pb      11.72212     11.68138     13.35044         0.234114      0.380786     -0.896308
Ti       1.89510      1.91016      2.30167         0.191237     -0.063167     -0.166950
Ti       1.87113      1.88400     15.62717         0.392594      0.623240      1.346509
Ti       1.92303     13.54783      2.35794        -0.199031      1.327980     -0.015046
Ti       1.83392     13.64129     15.67042         0.028675      0.194342      0.168309
Ti      13.53714      1.83814      2.40551         1.460092      1.502697     -0.692422
Ti      13.60175      2.02948     15.54781         0.344002     -1.715818      0.404009
Ti      13.54842     13.54680      2.38105         0.939210      0.134162     -0.889488
Ti      13.51749     13.54901     15.65499         0.140274      0.538794     -1.086563
Ti       1.93298      1.90136      6.73337        -0.391068      0.729315      0.583746
Ti       1.93016     13.60316      6.71622         0.124649     -0.097251      0.010274
Ti      13.66959      1.85468      6.74724        -0.125261      0.801385     -0.896300
Ti      13.68140     13.59527      6.73355        -0.228597      0.900124      0.765018
Ti       1.90720      1.96319     11.23042        -0.564638      0.028607     -1.216566
Ti       1.90870     13.67112     11.21847         0.321333     -0.220524     -1.067450
Ti      13.59385      2.03243     11.22301         0.607247     -1.259184     -1.795772
Ti      13.58833     13.64993     11.18927        -0.440695      0.094525      1.010471
Ti       1.99691      5.78945      2.38717        -0.963702     -0.495856     -0.089792
Ti       1.92834      5.83212     15.57026         0.311424     -0.273155     -0.530634
Ti      13.63509      5.82128      2.29625        -0.125499     -0.278088      2.205419
Ti      13.68558      5.74962     15.55078        -1.600513      1.148565      0.290447
Ti       1.89087      5.86538      6.66705        -0.520690     -1.060655     -0.063854
Ti      13.60653      5.89021      6.63405         0.209130     -0.427677      1.569736
Ti       1.85034      5.95857     11.15818         0.567477     -0.608808     -0.336290
Ti      13.52765      5.81046     11.10178         0.799470      1.170886     -0.357458
Ti       1.90541      9.71688      2.31850        -0.132057     -0.359855     -1.322651
Ti       1.93937      9.72377     15.60181        -0.248064      0.294626     -0.701185
Ti      13.66651      9.70296      2.24770        -0.543275      0.012440      1.184738
Ti      13.63395      9.69630     15.60968        -0.371788      0.556000     -0.382102
Ti       1.90956      9.70058      6.68577         0.248390      0.598306      1.086396
Ti      13.57359      9.88807      6.83133        -0.566784     -1.273887     -0.182612
Ti       1.89836      9.79832     11.24017         0.019138      0.037307     -0.252498
Ti      13.59903      9.73490     11.24505         0.306608     -0.169510     -1.899482
Ti       5.83569      1.90020      2.33234        -0.949238     -0.545599      0.187323
Ti       5.86401      1.85513     15.65833        -0.160512      1.455841     -0.867386
Ti       5.82690     13.63755      2.43811        -0.358642     -0.037712     -0.142927
Ti       5.77936     13.69366     15.48097         0.366150     -0.856905      0.216280
Ti       5.83383      1.97665      6.76389        -0.404991      0.164255     -0.201072
Ti       5.83741     13.68455      6.66832        -0.274831     -0.180671      2.544396
Ti       5.79022      1.94710     11.15963         0.958126      0.817170     -0.167812
Ti       5.79902     13.70066     11.17367        -0.729199     -1.072373     -1.166408
Ti       5.85875      5.83404      2.22456         0.071973      0.082765      0.940079
Ti       5.83453      5.82424     15.49537         0.466759     -0.934509      0.992560
Ti       5.82215      5.86027      6.82168         0.633316      0.422043     -0.780714
Ti       5.80062      5.82757     11.24278         0.356789      0.469760     -1.218694
Ti       5.85108      9.67441      2.23194        -0.142568      1.035484      1.076944
Ti       5.89652      9.75857     15.54260        -0.789051      0.535681     -0.310964
Ti       5.76639      9.76280      6.75740         0.305393     -0.219931      0.254664
Ti       5.80561      9.73959     11.06663         0.804267     -0.085986      1.124506
Ti       9.63983      1.81935      2.27551         0.337270      1.140375      0.471267
Ti       9.75462      1.91720     15.54928        -0.749713     -0.232793      1.444340
Ti       9.72654     13.51427      2.41362        -0.430019     -0.114684      0.642087
Ti       9.68450     13.68046     15.45144         0.192001      0.095741      1.275354
Ti       9.73927      1.90037      6.73762         0.442389      0.071289      0.900025
Ti       9.74788     13.60656      6.68472         0.108956      0.218911      1.477406
Ti       9.67103      2.02878     11.16592        -0.117573     -0.634880     -0.424522
Ti       9.67063     13.66085     11.24358         1.271916     -0.181047     -0.931816
Ti       9.74097      5.84173      2.33420         0.328507     -0.514354      0.188492
Ti       9.80368      5.88919     15.55517        -0.349230     -0.347876      0.345499
Ti       9.75090      5.81499      6.72810         0.399210      0.031393     -0.499855
Ti       9.72434      5.82290     11.15113        -0.605767      0.626274      0.092548
Ti       9.75522      9.70707      2.31938         0.431744      0.062393     -0.597835
Ti       9.74988      9.73562     15.52277         0.631941     -0.024453      0.577348
Ti       9.73458      9.74887      6.74800         0.296911     -0.531280      1.986849
Ti       9.75835      9.80679     11.14780        -1.082663     -0.474296     -0.993251
O       1.79784      1.93586      0.43733         0.073086      0.145300      1.889240
O       1.89764      1.94839     13.91549         0.110606     -0.182543     -1.371246
O       1.88077     13.60394      0.58280         0.220905     -0.158404      0.009641
O       1.76185     13.70412     13.95005         0.042570      0.120756     -0.617052
O      13.57302      1.86203      0.62296         0.075975     -0.042147      0.268582
O      13.58876      2.07933     13.77999        -0.276308     -0.108301      0.233441
O      13.43421     13.67110      0.56944         0.062624     -0.209000      1.017903
O      13.51504     13.48972     13.80495         0.144417      0.479914      1.698537
O       1.85119      1.95929      4.97699         0.370351     -0.462343      0.922581
O       1.95371     13.59240      4.90062        -0.121104     -0.016617      1.172462
O      13.76277      1.76603      4.87054        -0.583455      0.445443      1.814312
O      13.76295     13.64977      4.98611        -0.268211     -0.441891     -0.231671
O       1.85553      1.95326      9.41495         0.051784      0.135536      1.564487
O       2.08647     13.56932      9.43120        -0.527095      0.178037      1.370219
O      13.67980      1.99969      9.39521        -0.130489      0.022628      1.384017
O      13.55781     13.70466      9.47604         0.127153     -0.202430     -0.472744
O       2.00556      5.66438      0.63079        -0.180329      0.601664      0.340999
O       1.91199      5.84619     13.75366        -0.173407      0.084632      1.713919
O      13.48487      5.84244      0.60946         0.640570      0.129387     -1.338867
O      13.63819      5.77083     13.77978        -0.005287     -0.087944      1.051948
O       1.86997      5.93064      4.87108         0.502264     -0.043314      0.625993
O      13.58191      5.89801      4.88837         0.101647     -0.045068     -0.255136
O       1.98879      5.79642      9.34954        -0.358489      0.435624      1.883569
O      13.56676      5.91057      9.33009         0.101677     -0.362846      1.045065
O       1.95621      9.80417      0.44759        -0.159201     -0.084002      2.141472
O       1.91707      9.77530     13.78880         0.179178     -0.201342      1.140992
O      13.52452      9.69328      0.49483         0.468488     -0.082864      0.143427
O      13.59214      9.74324     13.82824        -0.252144     -0.264288      0.514852
O       1.91942      9.78719      4.97573         0.012691     -0.193927     -1.031042
O      13.46891      9.95381      5.06083         0.177065     -0.131984      0.371336
O       1.90886      9.79912      9.46133        -0.399375     -0.173675      0.332152
O      13.60579      9.65083      9.36894         0.422984      0.367447      1.882052
O       5.85913      1.85551      0.53056        -0.157172      0.144190      1.175378
O       5.81882      1.88549     13.84905        -0.172823     -0.178477      1.207063
O       5.81330     13.70789      0.71133         0.012253     -0.096624     -0.562593
O       5.84624     13.70599     13.70417         0.031544      0.201587      1.072696
O       5.70733      2.07542      4.98348         0.345661     -0.638223      1.184547
O       5.86004     13.77739      4.95727        -0.169900     -0.312629     -0.913308
O       5.92120      1.98652      9.39542        -0.272500     -0.013967      0.404462
O       5.57225     13.57618      9.33975         0.901993      0.504274      2.515272
O       5.90825      5.91481      0.45957        -0.182329     -0.216514      0.964197
O       5.87829      5.75033     13.73812        -0.339149      0.422227      0.804881
O       5.96886      5.98326      5.00351        -0.616081     -0.264981      1.747689
O       5.81745      5.82261      9.42348        -0.213312     -0.043741      1.376385
O       5.76546      9.69416      0.49679         0.098021      0.118477     -0.146245
O       5.76259      9.84641     13.76494         0.286755     -0.363381      1.270645
O       5.89166      9.66620      4.96627        -0.275002      0.250282      1.158788
O       5.83710      9.70943      9.31361        -0.189807      0.175740      0.338717
O       9.66474      1.93826      0.51276        -0.081534     -0.153048      0.683568
O       9.82425      1.95912     13.81345        -0.064811      0.137653     -0.087394
O       9.70540     13.35029      0.68118         0.207252      0.513650      0.290529
O       9.73603     13.81809     13.71204        -0.161898     -0.428527      0.013932
O       9.81357      1.79061      5.01333        -0.286939      0.131312     -0.172180
O       9.72624     13.54850      4.97088        -0.056038      0.258738     -0.893579
O       9.65007      2.09329      9.36981         0.152095     -0.620375      1.024683
O       9.82335     13.59787      9.42308        -0.473875      0.236239      1.378802
O       9.57596      5.81213      0.54780         0.212070      0.076168      1.534379
O       9.82709      5.97071     13.77021         0.003949     -0.262817      0.592650
O       9.77317      5.77561      4.91613        -0.213511      0.286774      1.341147
O       9.65263      5.89948      9.39642         0.249171     -0.532617      0.705855
O       9.76754      9.75632      0.52373        -0.124053     -0.104374      1.197456
O       9.86389      9.56362     13.76620        -0.508166      0.426339      0.462986
O       9.89419      9.66291      5.02206        -0.155324      0.280587     -0.585362
O       9.64265      9.79659      9.31276         0.424318      0.293719      1.738767
O       3.80534      1.93972      2.78826         0.814033      0.101663     -0.333754
O       3.80869      1.93912     16.11927         0.560863     -0.510824     -0.425743
O       3.92243     13.56330      2.85068        -0.595652      0.134483     -0.014219
O       3.88910     13.76976     15.91265         0.058001     -0.149550      0.161591
O       0.02657      1.97102      2.87717         0.282220     -0.474868     -0.962339
O      15.49788      1.94619     15.89475        -0.200966      0.145372      0.324468
O      15.58228     13.57665      2.73830         0.193791      0.209658      0.029433
O      15.51537     13.59129     16.13242        -0.203155      0.017413     -0.152965
O       3.84636      1.95899      7.25743         0.238280      0.168315     -0.529520
O       3.86434     13.65600      7.24108        -0.257528     -0.177489     -0.906598
O      15.56622      1.88147      7.29402         0.229342      0.131003     -0.451605
O      15.58532     13.53131      7.14012         0.673134      0.440528      0.069499
O       3.92965      1.98182     11.61837        -1.061582     -0.097369     -0.139685
O       3.94181     13.68607     11.71366        -0.526288      0.228699     -0.181711
O      15.52904      1.94969     11.58842         0.520406      0.165323      0.410898
O      15.57341     13.65333     11.64542         0.046854      0.224522     -0.116667
O       3.95899      5.84886      2.76871         0.258147      0.145305     -0.299280
O       3.79077      5.75402     15.96930         0.881539      0.706035     -0.253894
O      15.59895      5.72943      2.77063         0.198230      0.719978     -0.346143
O      15.46645      5.84811     16.05146         1.563373      0.055237     -0.189040
O       3.81069      5.82354      7.20379         1.179831      0.054411     -0.369474
O       0.02618      5.96037      7.02998        -0.631744     -0.123374      0.179115
O       3.88146      5.90269     11.70902        -0.215575     -0.428082     -0.394341
O      15.58341      5.93355     11.57205         0.436015     -0.473652     -0.291273
O       3.90262      9.77072      2.70860        -0.288397     -0.314736     -0.031096
O       3.81739      9.71678     16.03262         0.972485      0.423050     -0.224056
O      15.57575      9.63242      2.71206         0.362845      0.758902     -0.313338
O      15.55916      9.71055     15.97498         0.041122      0.315900      0.232606
O       3.80516      9.74254      7.13898         0.782060     -0.569745     -0.290594
O      15.49576      9.76450      7.10700         1.174940     -0.330695      0.345442
O       3.80505      9.79222     11.62826         0.581431     -0.154343     -0.128014
O      15.53131      9.69750     11.76003         0.563388      0.110121     -0.548278
O       7.68977      1.88262      2.86063         0.455263     -0.206199     -0.623532
O       7.73130      1.95322     15.98257         0.649914      0.074869     -0.022733
O       7.80254     13.59209      2.79603         0.349980      0.127904      0.319597
O       7.78670     13.65207     16.05616        -0.210620     -0.068039     -0.498963
O       7.80578      1.86173      7.21211        -0.593497      0.167384     -0.601939
O       7.73098     13.70070      7.09203        -0.061280     -0.033102     -0.001868
O       7.76391      2.01251     11.70863        -0.281106     -0.443594     -0.443457
O       7.74619     13.61911     11.60425        -0.392071      0.114940     -0.165399
O       7.74911      5.90765      2.85547        -0.140750     -0.508071     -0.996127
O       7.80913      5.68401     15.90053        -1.124307      0.730718     -0.047371
O       7.82792      5.86354      7.27516        -0.462132     -0.230551     -0.627017
O       7.77689      5.79427     11.67864        -0.247023      0.722943     -0.068704
O       7.81638      9.73466      2.62829        -0.358863     -0.152437      0.195534
O       7.79644      9.76119     16.02204        -0.308039     -0.265785     -0.606283
O       7.83147      9.78992      7.22512        -0.714864     -0.381441     -0.762069
O       7.77170      9.77249     11.56083        -0.264884      0.075645      0.121295
O      11.67914      1.96724      2.76594        -0.733495     -0.534017     -0.320269
O      11.63386      1.87514     15.99874         0.609213      0.586307     -0.236234
O      11.71026     13.58232      2.93979        -0.460334      0.267396     -0.625840
O      11.54659     13.64614     16.01353         0.735456     -0.068418      0.001611
O      11.74851      1.90055      7.25537        -0.220089      0.166582     -0.438640
O      11.69366     13.67589      7.15426        -0.078629     -0.379378     -0.191000
O      11.65751      1.97460     11.57158        -0.291608      0.412858      0.156701
O      11.61792     13.59538     11.61167         0.429793      0.271214      0.179783
O      11.68029      5.64098      2.66751        -1.109240      0.476629     -0.015321
O      11.65947      5.84940     16.14137         0.497649     -0.134931     -0.831055
O      11.74676      5.76531      7.13786        -1.488597      0.028606     -0.015668
O      11.63534      5.80186     11.50124        -0.125718     -0.150607      0.102642
O      11.73723      9.72673      2.74107        -0.236912     -0.025231     -0.026078
O      11.56852      9.65970     16.02317         0.759281     -0.159330     -0.223320
O      11.69979      9.87203      7.36031        -0.856291     -0.172111     -0.688206
O      11.67316      9.72782     11.54206         0.209411      0.070104      0.168934
O       2.00522      3.87063      2.86940        -0.110883      0.111153     -0.628504
O       1.88230      3.91932     16.04183        -0.301637      0.180362     -0.400253
O       2.01530     15.55291      2.69715        -0.389273      0.409806      0.029592
O       1.77977      0.04689     16.09161         0.418274     -0.971779     -0.223943
O      13.67563      3.87462      2.83493        -0.250227     -0.456753     -0.338773
O      13.64695      3.87874     16.03493        -0.601755     -0.063586     -0.376728
O      13.67447      0.00612      2.77351        -0.258049     -0.886299     -0.043527
O      13.54791     15.53656     15.99158         0.117710      0.533223     -0.132049
O       1.82255      3.87194      7.22239         0.451134     -0.100189     -0.393496
O       1.96929     15.55047      7.24265        -0.414183      0.189142     -0.576523
O      13.70645      3.94901      7.13110         0.012149     -0.874510     -0.087919
O      13.67409     15.57711      7.08259         0.107258      0.016766      0.407807
O       1.88051      3.89528     11.70639         0.235132      0.003438     -0.461673
O       1.89397      0.01810     11.58524         0.195153      0.266067      0.369716
O      13.60764      3.94376     11.60651         0.093699     -0.374632     -0.037597
O      13.56835      0.02138     11.58045         0.116582      0.011627      0.486815
O       1.90094      7.81957      2.77081         0.580416     -0.282440     -0.382634
O       1.95960      7.85136     16.11427        -0.501941     -1.521912     -0.468440
O      13.63449      7.76549      2.79645        -0.122125      0.027129     -0.549909
O      13.67610      7.83222     16.07254        -0.477758     -0.886297     -0.228036
O       1.87629      7.71951      7.18075         0.609985      1.473995     -0.195371
O      13.48480      7.78743      7.12821         0.524310      0.484405     -0.113250
O       1.99722      7.88001     11.56441        -0.389252     -1.234914      0.042292
O      13.65938      7.73242     11.58718        -0.444442      0.175131      0.237497
O       1.97405     11.68037      2.72754        -0.266903     -0.984690      0.170272
O       1.89030     11.71271     16.03127         0.272520     -0.157107      0.040729
O      13.68743     11.68995      2.65826        -0.194364     -0.523235      0.087972
O      13.49282     11.65943     16.00985         0.204222     -0.111774      0.158623
O       1.93349     11.63531      7.11915        -0.265605      0.365108     -0.009590
O      13.67462     11.73389      7.30194        -0.363461      0.241597     -0.268699
O       1.88886     11.74677     11.66575         0.114085      0.014456     -0.061625
O      13.65536     11.61373     11.68270        -0.228219      0.498731     -0.418360
O       5.84549      3.85790      2.84060        -0.025323      0.684864     -1.123756
O       5.75658      3.85955     16.06993         0.138603      0.475923     -0.463102
O       5.76955     15.59965      2.85496         0.176304      0.372936     -0.079396
O       5.92749     15.58453     16.15106        -0.781672     -0.271394     -0.815106
O       5.85875      3.88567      7.21921        -0.171166      0.263107     -0.284061
O       5.73794      0.01766      7.29563         0.435582      0.180206     -0.831715
O       5.84128      3.89877     11.70093        -0.382292      0.107578     -0.409289
O       5.88141      0.09267     11.55391        -0.230466     -1.207217     -0.088265
O       5.81436      7.82462      2.76102         0.141098     -0.698051     -0.597926
O       5.82419      7.86905     15.94305        -0.011111     -1.448727     -0.336656
O       5.87488      7.81268      7.31607        -0.550682     -0.302974     -0.711609
O       5.77279      7.83594     11.63796         0.137483     -0.422759     -0.141577
O       5.83901     11.67881      2.82797         0.208642     -0.673119     -0.168561
O       5.87078     11.73251     15.89208        -0.411407      0.039146      0.181597
O       5.78034     11.68634      7.23429         0.176668     -0.168821     -1.043335
O       5.76665     11.61877     11.62145         0.241823      0.915504     -0.256219
O       9.57466      3.75529      2.82557         0.442293      0.583671     -0.736581
O       9.75697      3.89150     16.16472        -0.238699     -0.464544     -1.115557
O       9.69103     15.59697      2.77413         0.223738     -0.664416     -0.270010
O       9.69989     15.58361     15.99277        -0.193501      0.425408     -0.217576
O       9.74973      3.82875      7.16620        -0.110918      0.467892     -0.131997
O       9.74093     15.54681      7.23329        -0.153316      0.389759     -0.157360
O       9.52872      3.87413     11.57512         1.233211      0.660055      0.077101
O       9.64309      0.06813     11.64690         0.361651     -0.249318     -0.503917
O       9.79077      7.75469      2.86044        -0.115737     -0.222873     -0.852286
O       9.64180      7.71345     16.02828        -0.041541      0.550845     -0.245187
O       9.77600      7.76465      7.21905         0.074977      0.159226     -0.622709
O       9.71689      7.89442     11.57004        -0.054875     -1.247773      0.112282
O       9.77601     11.57989      2.81871        -0.091675      0.495562      0.107598
O       9.76127     11.70092     15.87435        -0.523323     -0.377888     -0.211751
O       9.66138     11.70375      7.17008         0.423192      0.275125     -0.309660
O       9.72517     11.70230     11.67938        -0.163720      0.000848     -0.058176
