  # total energy = -7878.89589415 
CRSYTAL
PRIMVEC
    15.3600000000000000    0.0000000000000000    0.0000000000000000
     0.0000000000000000   15.3600000000000000    0.0000000000000000
     0.0000000000000000    0.0000000000000000    17.440000000000000
PRESSURE
-0.374403 -0.39368 -6.15939 0.121019 0.331515 -0.088154
PRIMCOORD
320 1
Pb       3.80539      3.78717      4.42740        -0.094966      0.197391     -0.659945
Pb       3.88945      3.72939     17.39194        -0.191144      0.570289      0.119923
Pb       3.76682     15.29802      4.41240         0.063303     -0.311504     -0.099356
Pb       3.77803     15.33059     17.36188         0.200165      0.010013      0.121369
Pb       0.05084      3.76395      4.41134        -0.368750      0.127613     -0.497385
Pb       0.15885      3.85908      0.07176        -0.455436      0.106890     -0.333494
Pb       0.07365     15.27837      4.32122        -0.106696      0.355696     -0.289715
Pb      15.13226     15.25494      0.02209         0.362968      0.207786     -0.494856
Pb       3.71908      3.90032      8.70218         0.094320      0.342350     -0.409352
Pb       3.84162      0.01187      8.79532         0.031843     -0.198074     -0.824888
Pb      15.10688      3.98694      8.68303         0.726823     -0.201499     -0.338691
Pb      15.20679      0.13724      8.77723         0.127309     -0.446391     -0.551684
Pb       3.82329      3.74157     12.93023         0.001002      0.567360      0.219954
Pb       3.70232     15.28393     12.90143         0.098043      0.169165      0.067730
Pb       0.03040      3.67076     13.13925         0.267371      0.552771     -0.021654
Pb       0.01826     15.32379     12.99336        -0.007293     -0.043619     -0.125275
Pb       3.86894      7.64506      4.31005         0.345024      0.357093     -0.337333
Pb       3.67731      7.56204     17.41844         0.647865      0.245094     -0.132910
Pb       0.18072      7.76138      4.33003        -0.560313      0.110232     -0.302930
Pb      15.21433      7.69529     17.38370         0.410979     -0.097261     -0.265235
Pb       3.91692      7.69075      8.73953        -0.452990     -0.187294      0.444256
Pb      15.34252      7.64985      8.72397         0.134328     -0.009189     -0.394417
Pb       3.78598      7.57228     13.02369         0.242432      0.237364     -0.117301
Pb       0.04506      7.62445     13.16705         0.075644      0.000116     -0.388874
Pb       3.67817     11.52087      4.31908         0.586860      0.181013      0.363283
Pb       3.94211     11.39821     17.34033        -0.032439      0.178391     -0.172277
Pb       0.04340     11.64464      4.25135        -0.134554     -0.610808     -0.182619
Pb      15.20881     11.50415     17.31152         0.510069      0.326795      0.146834
Pb       3.79787     11.56641      8.73864         0.053799     -0.221197     -0.494390
Pb      15.27966     11.37947      8.75378         0.594910      0.044963     -0.447901
Pb       3.89276     11.44691     12.97706         0.359857     -0.053299      0.040137
Pb       0.15984     11.50282     13.14581        -0.190894     -0.009016     -0.680744
Pb       7.72972      3.67411      4.41523        -0.421810      0.258674     -0.641023
Pb       7.59721      3.84537     17.41270         0.205917      0.299595     -0.310493
Pb       7.74266     15.32739      4.41692        -0.342680      0.173392     -0.603938
Pb       7.47424     15.31683     17.39066         0.156883      0.233019     -0.474634
Pb       7.65471      3.84349      8.70067        -0.051148      0.389542     -0.533385
Pb       7.66395     15.28615      8.62793        -0.289546      0.019101     -0.096783
Pb       7.83110      3.99766     13.21630        -0.080235     -0.383092     -0.689770
Pb       7.59000      0.19222     13.01351         0.556161     -0.488342     -0.017569
Pb       7.65078      7.50179      4.28493        -0.419025      0.325215      0.361093
Pb       7.55302      7.68981      0.00177         0.107049      0.140612     -0.222140
Pb       7.62251      7.80894      8.68405         0.392778     -0.453541     -0.177743
Pb       7.58848      7.63820     12.96395         0.184083      0.381796      0.367252
Pb       7.72197     11.39353      4.40541        -0.289540      0.475425     -0.249416
Pb       7.55107     11.59500     17.38898         0.045541     -0.423890     -0.523759
Pb       7.65863     11.52469      8.69286        -0.135290     -0.114755     -0.010537
Pb       7.79692     11.56620     13.02013        -0.474082     -0.045521     -0.011636
Pb      11.49599      3.73703      4.33657         0.186835      0.288248     -0.303405
Pb      11.62360      3.80648      0.09612        -0.214354     -0.172715     -0.494366
Pb      11.55785     15.26248      4.33241        -0.067619     -0.239081     -0.554148
Pb      11.35333     15.24295     17.41488         0.234856      0.350669     -0.231108
Pb      11.46353      4.04128      8.71837        -0.185178     -0.393329     -0.470638
Pb      11.44934     15.31614      8.66908         0.256053     -0.115502      0.028568
Pb      11.58930      3.69490     13.29911        -0.680872      0.243295     -1.068480
Pb      11.49216     15.33130     13.05518         0.027351      0.239218     -0.936557
Pb      11.50709      7.68920      4.21342         0.407633     -0.184734      0.503995
Pb      11.46163      7.59809      0.07572        -0.130632      0.532749     -0.763929
Pb      11.53791      7.69124      8.70439        -0.105088      0.244249     -0.817141
Pb      11.40531      7.65371     13.10600        -0.075527     -0.155832     -0.748635
Pb      11.56964     11.39074      4.34891         0.025702      0.596112     -0.378719
Pb      11.32423     11.46770     17.38866         0.384201     -0.057727      0.240460
Pb      11.54966     11.53037      8.79108        -0.025904     -0.282151     -0.653061
Pb      11.49585     11.44456     13.02195         0.110056      0.160709     -0.507390
Ti       1.83678      1.90627      2.25347         0.370744     -0.208013      1.066406
Ti       1.87526      1.88715     15.46028        -0.731039     -0.308836     -2.133142
Ti       1.93843     13.52268      2.17287         0.200064     -0.893014      0.455120
Ti       1.99560     13.47704     15.34253        -0.630774     -0.891640      0.276689
Ti      13.34007      1.87158      2.24208         0.696752      0.393539     -0.709182
Ti      13.36113      1.91351     15.41739         0.474742     -0.617386      1.715144
Ti      13.43947     13.35932      2.26765        -1.130309     -0.652987     -0.785479
Ti      13.39429     13.46554     15.26805         0.832080     -0.361465     -0.710257
Ti       1.83043      1.87044      6.66768         0.242186      0.383988     -0.923595
Ti       1.87943     13.46553      6.78588         1.074984     -1.183271     -1.156332
Ti      13.36293      1.87898      6.66833         0.327264      0.272065     -1.088132
Ti      13.49655     13.37589      6.63391        -0.291804      0.510217     -0.322076
Ti       1.83137      1.94832     10.95842         0.609070     -0.334443     -0.170948
Ti       1.89457     13.39585     10.90341         0.161899     -0.168034      0.303751
Ti      13.43778      2.03871     10.99956        -1.143950     -1.023374     -0.410289
Ti      13.44652     13.41591     10.94554         0.278154      0.047404     -1.022192
Ti       1.93369      5.76188      2.32129         0.744053     -0.101396     -1.041233
Ti       1.94918      5.69388     15.39132         0.299045      0.826818     -1.157901
Ti      13.49679      5.80453      2.27168         0.109481     -0.857191      0.436756
Ti      13.43358      5.70299     15.38641         0.289753      0.369053     -1.046343
Ti       1.93140      5.78936      6.58417        -0.368125     -0.530743      0.176501
Ti      13.42198      5.77254      6.55040         0.677478      0.442754     -0.798791
Ti       1.81044      5.68822     11.07148         2.094629      0.856557     -2.073951
Ti      13.46841      5.77917     11.04906        -1.084551      0.529448      0.768361
Ti       1.96759      9.66840      2.20603        -0.243073     -0.533228     -0.787542
Ti       2.05602      9.59174     15.41005         0.140311     -0.457474     -0.963517
Ti      13.39072      9.56025      2.23883         0.713765      0.517774      0.211247
Ti      13.48258      9.65584     15.34521        -0.475179     -0.293156     -0.852671
Ti       1.97237      9.49595      6.76544         0.108791      1.111118      0.203293
Ti      13.44410      9.61021      6.61618        -0.391441     -1.142393     -1.181328
Ti       1.95467      9.53906     11.03421         0.167522      0.047665     -2.080409
Ti      13.49593      9.53508     11.03924        -0.081527      0.635300     -0.113919
Ti       5.58455      1.89016      2.32605         0.910002      0.110386      0.429750
Ti       5.67454      2.01768     15.22744         0.569822     -0.790996      0.278186
Ti       5.72521     13.49091      2.28869        -0.644174     -0.325232      0.639233
Ti       5.74155     13.56806     15.22234        -0.123951     -1.606611     -1.370483
Ti       5.69254      1.86553      6.65992        -0.030204      0.071317     -0.654999
Ti       5.78174     13.39226      6.62202        -0.916631      0.024884     -0.138854
Ti       5.69646      1.88607     11.00300         0.512584      0.907291      0.403919
Ti       5.80891     13.47958     11.01080        -0.074149     -0.878771     -0.775809
Ti       5.80543      5.71581      2.30936        -0.880966      0.417706     -0.614227
Ti       5.79212      5.73438     15.36213        -0.199609      1.269943     -1.276518
Ti       5.72255      5.78449      6.70472         0.532528     -0.219969     -0.141918
Ti       5.76318      5.68562     11.02041        -1.612386      0.371362     -1.703163
Ti       5.80104      9.68572      2.32803        -1.089330     -1.434239     -1.266245
Ti       5.87356      9.58314     15.34824        -1.231812      0.428264     -1.369471
Ti       5.75922      9.60425      6.66144        -0.889200      0.539944     -0.598690
Ti       5.79934      9.59161     11.04576         0.181193     -0.211756     -0.428649
Ti       9.48345      1.91658      2.19111        -0.114701     -0.756824     -0.467788
Ti       9.50268      1.90971     15.40337         0.095872      0.601690     -1.164082
Ti       9.54005     13.40362      2.22493         1.218381     -0.218189      0.363515
Ti       9.55053     13.44719     15.35742        -0.860226     -0.241832     -1.908514
Ti       9.57708      1.93854      6.73636        -0.052711      0.162989     -0.324990
Ti       9.64326     13.36739      6.65536         0.663281      0.075285     -0.688108
Ti       9.60213      1.97249     10.93824         0.273306      0.381028     -0.575546
Ti       9.66443     13.46129     10.97856        -0.133037     -0.079971     -0.202832
Ti       9.63490      5.76759      2.27425        -0.583167     -0.542292     -0.365733
Ti       9.59957      5.77030     15.41462        -0.582403      0.205131      0.057881
Ti       9.57238      5.79924      6.55711         0.280383      0.626144      0.324496
Ti       9.57029      5.78699     10.96366         0.442942     -0.442157     -1.123187
Ti       9.53879      9.63053      2.36929         0.286461      0.387447     -2.280350
Ti       9.60371      9.61313     15.36702        -0.890126     -0.624701      0.275740
Ti       9.58996      9.60398      6.53583         0.920523     -0.973301      0.984483
Ti       9.63364      9.61237     10.96530        -0.842672     -0.255935     -1.421373
O       2.03055      1.86851      0.48536        -0.517940      0.313354     -0.425716
O       1.74389      1.87840     13.44276         0.626206      0.069977      3.068590
O       1.96298     13.44478      0.42115        -0.187286      0.209570     -0.370547
O       2.00345     13.52178     13.55457        -0.280958     -0.241056      0.615857
O      13.39120      1.93796      0.37922        -0.401412     -0.301860      1.578747
O      13.30111      1.88564     13.66432         0.240247      0.006357     -0.933467
O      13.43538     13.13889      0.43381        -0.033415      1.185008      1.000493
O      13.53960     13.58148     13.44738        -0.738730     -0.485777      1.159496
O       1.83242      1.80425      4.77552        -0.170205      0.297903      1.966393
O       2.16224     13.41624      4.90276        -1.437348      0.236999      1.573186
O      13.35046      1.82191      4.81317         0.070477      0.215994      0.972363
O      13.50225     13.35014      4.74715        -0.125859      0.248484      1.317955
O       1.80624      1.91275      9.15266        -0.020950      0.156917      0.730863
O       1.87422     13.46929      9.13767         0.022077      0.035871     -0.018693
O      13.47112      2.05630      9.21640        -0.072207     -0.346590      0.464272
O      13.51243     13.41538      9.04488        -0.304349      0.234951      2.225739
O       1.88228      5.62016      0.42937         0.366541      0.290074      1.244610
O       1.95834      5.79131     13.53255        -0.484733     -0.460339      1.226764
O      13.35015      5.77213      0.45180         0.280606      0.037619      0.416150
O      13.56472      5.65687     13.54029        -0.603488      0.643930      1.666810
O       1.86321      5.88136      4.74727         0.178581     -0.320835      0.778397
O      13.57700      5.79075      4.75525        -0.217843     -0.206698      0.406073
O       1.91371      5.69967      9.17149        -0.206877     -0.453526      1.993029
O      13.41952      5.87429      9.27628         0.178573     -0.554005      0.148408
O       1.94600      9.63497      0.38353         0.089443     -0.269361      0.955973
O       2.15655      9.47920     13.55191        -0.814164      0.462086      0.912224
O      13.33241      9.55060      0.42502         0.386718      0.116165      0.442628
O      13.46723      9.60226     13.49502        -0.098913      0.159433      1.534747
O       2.09800      9.41436      4.93744        -0.700182      0.333518      0.811114
O      13.45528      9.59813      4.73081         0.100602     -0.023679      2.012634
O       1.86638      9.53284      9.11690        -0.031948      0.028330      2.428215
O      13.45656      9.35753      9.24082        -0.000058      0.786926      0.917210
O       5.55948      1.82559      0.54410         0.455404      0.198234      0.038806
O       5.69430      2.07267     13.46952         0.129765     -0.610937      0.145478
O       5.71474     13.51780      0.49906         0.226327      0.059707      0.631409
O       5.77857     13.47591     13.38282         0.064691      0.194495      1.187961
O       5.71089      1.73820      4.83536        -0.042598      0.859136      1.115209
O       5.70106     13.37895      4.81713         0.305621      0.172511      0.629011
O       5.66071      1.91978      9.26591         0.346284     -0.315819     -0.925126
O       5.88730     13.48476      9.11887        -0.100274      0.173024      2.239658
O       5.83085      5.78995      0.47427        -0.089543     -0.313014      0.990474
O       5.89950      5.69367     13.49236        -0.350997      0.039085      1.706682
O       5.78379      5.90271      4.91196        -0.055473     -0.471670      0.347294
O       5.69122      5.79310      9.08345         0.529709     -0.449900      1.997106
O       5.75903      9.53829      0.43582         0.216755      0.592063      1.968032
O       5.80440      9.66122     13.48300         0.020510     -0.248973      1.214266
O       5.63826      9.67849      4.84355         0.550983     -0.133585      1.279596
O       5.86418      9.51045      9.21101        -0.116128      0.441960      1.000189
O       9.48397      1.87574      0.37294         0.029556      0.298735      0.753901
O       9.61311      2.03831     13.51837         0.027370     -0.701646      1.447768
O       9.54866     13.24352      0.41233        -0.103218      0.695072      0.243714
O       9.45213     13.37120     13.47883         0.727590      0.657471      1.878717
O       9.55639      1.79255      4.89825         0.134108      0.186152      0.886230
O       9.81767     13.39645      4.85560        -0.658101      0.686856      0.701444
O       9.67939      2.16514      9.08038        -0.464726     -0.475697      1.178118
O       9.78010     13.27514      9.17675        -0.316164      0.180054      0.107331
O       9.45046      5.64300      0.45384         0.827801      0.104757      1.557099
O       9.51894      5.79112     13.59788         0.231141      0.122469      0.333045
O       9.67076      5.78531      4.75192        -0.097939      0.096000      0.016331
O       9.52979      5.68571      9.09539         0.209268      0.169943      1.790816
O       9.50531      9.70452      0.47832         0.194405      0.174620      1.661512
O       9.58977      9.57507     13.58013         0.391736     -0.120900      0.162373
O       9.59727      9.57181      4.73654         0.101792     -0.103043      0.214710
O       9.63564      9.66801      9.08871         0.004841      0.044054      1.926540
O       3.74372      1.99373      2.69542         0.433075      0.382405      0.264221
O       3.81339      1.87182     15.76162        -0.371726      0.142859     -0.285181
O       3.74348     13.40158      2.70821         1.822391      0.130117     -0.528325
O       3.89811     13.48033     15.73812        -1.343630      0.123980     -0.165478
O      15.33185      1.70335      2.61989        -0.411252      0.220862     -0.134231
O      15.32004      1.88132     15.88912         0.515114      0.272549     -0.500835
O      15.32417     13.45713      2.58969         1.103182      0.260048      0.290262
O      15.32252     13.28818     15.67040         0.462720      0.471489      0.033362
O       3.74604      1.77240      7.09693         0.721101      0.524071     -0.291828
O       3.87645     13.41378      7.14675        -0.389625      0.378360      0.004047
O      15.26766      2.02535      7.11735         1.148482     -0.305636     -0.472746
O       0.01320     13.44171      7.04027        -0.134240     -0.235440     -0.397128
O       3.72565      1.89379     11.24046         0.552554     -0.311233      0.430751
O       3.85859     13.47664     11.32632         0.000796      0.423923     -0.340463
O      15.35811      2.01017     11.47888        -1.158045     -0.206788     -0.551489
O       0.04195     13.31312     11.39757        -0.491276      0.199695     -0.080236
O       3.91381      5.69710      2.72459        -0.059665     -0.738896     -0.044849
O       3.86968      5.66926     15.74707        -0.167987      0.491333     -0.029814
O       0.10403      5.83234      2.58063        -1.269025      0.468722      0.013201
O      15.31716      5.70320     15.83373         0.095230     -0.048884     -0.178868
O       3.83652      5.77293      7.08482        -0.073900      0.014809     -0.488700
O      15.33966      5.74843      7.07798         0.514839     -0.215081     -0.369018
O       3.80781      5.74121     11.36497         0.677091     -0.138800      0.237031
O       0.01930      5.68153     11.41159        -0.798559      0.118540      0.125869
O       3.81352      9.63229      2.68958         1.038788      0.307267     -0.349868
O       3.87995      9.50362     15.86785        -0.047153      0.024777     -0.278373
O       0.06495      9.51984      2.59548         0.460075     -0.265578     -0.005162
O       0.02080      9.72379     15.71512        -0.790443     -0.850588     -0.301055
O       3.83665      9.63409      7.29741         0.225395     -0.159668     -0.993468
O      15.29475      9.56570      7.16724         0.606932     -0.126725     -0.698891
O       3.86445      9.44893     11.39727         0.276986      0.752051     -0.261910
O       0.07716      9.73500     11.42838        -0.407174     -0.153736      0.129854
O       7.56573      1.87911      2.76505         1.135781     -0.251345     -0.291380
O       7.56845      2.04259     15.60096         0.026474     -0.263470      0.320776
O       7.78285     13.54260      2.66647        -2.189787     -0.315217      0.102037
O       7.52974     13.50698     15.74418         1.066728     -0.617917      0.358105
O       7.62056      1.91063      6.99548         0.739327     -0.064301      0.273472
O       7.72004     13.39751      6.97334         0.289320      0.037987     -0.014853
O       7.72943      1.86787     11.33973        -0.218470      0.231296     -0.235773
O       7.84778     13.39692     11.27883        -2.234255      0.414632      0.017135
O       7.70855      5.72951      2.80981         0.963127      0.134716     -0.590264
O       7.66851      5.71359     15.83503        -0.419240     -0.384553     -0.261303
O       7.72420      5.83378      6.94034        -0.819854      0.210993      0.057409
O       7.54317      5.76475     11.38194         2.070655     -0.583283     -0.169280
O       7.68975      9.62631      2.76464        -0.422884     -0.255588     -0.067639
O       7.65993      9.53117     15.78170         0.513752      0.722812     -0.016569
O       7.67750      9.70430      6.97522        -0.024382     -0.487968     -0.189987
O       7.73172      9.62070     11.24350        -0.444655      0.120381      0.410697
O      11.46424      2.05510      2.61043         0.222029     -0.800934     -0.193607
O      11.43563      1.87087     15.77607         0.171478     -0.383959      0.046592
O      11.55428     13.23705      2.60882        -0.484961      0.447072      0.004844
O      11.44699     13.54059     15.67089        -0.316233     -0.036969     -0.183030
O      11.48287      2.01278      7.04059        -0.095441     -0.667844     -0.164997
O      11.58892     13.52774      7.05178        -0.147912     -0.302354     -0.184769
O      11.49076      1.96992     11.40945         0.812210      0.099085      0.248417
O      11.51479     13.35048     11.35929         0.976895      0.413882      0.414153
O      11.62790      5.77987      2.69250        -1.330660     -0.592175     -0.439523
O      11.48453      5.75526     15.74281         0.637242      0.079346      0.088023
O      11.60737      5.72660      6.93550        -1.301318      0.187938      0.276223
O      11.48564      5.99415     11.32364         0.521825     -0.319334      0.136067
O      11.50941      9.59936      2.64364         0.159272      0.414526     -0.039878
O      11.41557      9.72342     15.84148         0.814855     -0.916410     -0.759664
O      11.55060      9.53967      7.06586         0.163454      0.534458     -0.453813
O      11.50342      9.64973     11.36385         0.750881     -0.891232      0.292721
O       1.75790      3.79972      2.77003         0.502195     -0.121514     -0.275992
O       1.98339      3.81630     15.78704        -0.636954     -1.028294     -0.074680
O       2.03764     15.35647      2.74401        -0.685139     -0.051308     -0.575512
O       1.83593     15.35803     15.78458         0.253507     -0.378323     -0.160034
O      13.55724      3.80735      2.56466        -0.089451      0.098067      0.197319
O      13.38437      3.78011     15.70232        -0.288393      0.654836      0.136176
O      13.28842     15.29996      2.54113         0.051749      0.190681     -0.089748
O      13.45362     15.29003     15.83411        -0.289814      0.290655     -0.075873
O       2.09579      3.89380      6.76575        -0.633441     -1.130038      0.250216
O       1.88559     15.35206      7.02237        -0.402050      0.306120      0.120472
O      13.40740      3.82308      7.06126         0.087888      0.303468     -0.313873
O      13.53204     15.33912      7.00480        -0.406849      0.627808      0.058895
O       1.97393      3.82874     11.50908        -0.664699     -0.371650     -0.659994
O       1.82907     15.31887     11.41594         0.007715      0.335018     -0.656946
O      13.38341      3.89723     11.43129         0.056467     -0.241039     -0.043163
O      13.44423      0.03830     11.29788         0.142189     -0.090889      0.032086
O       2.27718      7.61208      2.57379        -1.627405      0.715109     -0.335588
O       1.96146      7.57033     15.65568        -0.509171      0.661810      0.701179
O      13.40275      7.68991      2.64335         0.336120     -0.218042     -0.333911
O      13.42635      7.70519     15.78983        -0.088196     -0.020092     -0.421522
O       1.94672      7.59855      7.12429        -0.177050      0.850007     -0.348149
O      13.42970      7.66145      7.01875         0.153455      0.095255     -0.178629
O       1.95969      7.65053     11.40902        -0.832329     -0.152945      0.092245
O      13.65436      7.71456     11.45390        -0.413385     -0.538151      0.263631
O       2.00632     11.57209      2.66798        -1.145607     -0.666132     -0.288138
O       2.00770     11.42586     15.62506         0.176971      1.628591     -0.017943
O      13.59027     11.42132      2.69533        -0.256124      0.355790     -0.177998
O      13.32922     11.56000     15.64680         0.071475     -0.585117     -0.176616
O       1.92819     11.45314      7.11306        -0.262943      0.484888     -0.156175
O      13.44577     11.51786      7.04611        -0.010900     -0.314728     -0.200628
O       2.06717     11.50375     11.29970        -0.152336     -0.028570      0.351457
O      13.36149     11.55040     11.19983         0.339042     -0.508861      0.344690
O       5.86119      3.86851      2.67105        -0.377934     -0.928273      0.194608
O       5.69516      3.87929     15.76116         0.075140     -0.907867      0.120577
O       5.59635     15.35235      2.68531         0.465708     -0.296969     -0.108076
O       5.75665      0.02341     15.57023        -0.109322      1.358092      0.357943
O       5.80191      3.83398      6.99954        -0.508360     -0.393259     -0.211379
O       5.79914     15.31417      7.01360         0.069918      0.416451      0.272862
O       5.70747      3.74669     11.39430         0.049592      1.012531     -0.402113
O       5.74515      0.02017     11.45369         0.248905     -0.361982     -0.279012
O       5.83172      7.71842      2.71881        -0.083609     -0.284382     -0.159624
O       5.81200      7.71077     15.70773        -0.222972     -1.368206     -0.058443
O       5.64022      7.73048      7.11438         0.929576      0.191282     -0.528229
O       5.85164      7.68453     11.42778        -0.554768     -0.270546     -0.422704
O       5.82357     11.54921      2.61333         0.098517      0.309423     -0.103618
O       5.68209     11.52663     15.70019         0.311822     -0.030970      0.127407
O       5.74292     11.54535      7.17890         0.171379     -0.643703     -0.462798
O       5.73333     11.57385     11.41677         0.196338     -0.226077     -0.626380
O       9.62509      3.75697      2.65932        -0.462390      1.033663      0.085739
O       9.57158      3.83490     15.62852        -0.030130     -0.244821      0.459520
O       9.56918     15.33504      2.45479         0.890525      0.352370      0.473232
O       9.30163     15.34829     15.69588         1.008746      0.128863      0.254043
O       9.57384      3.96708      6.91872        -0.022560     -1.973878      0.081077
O       9.59777     15.29251      7.22713        -0.032056      1.012064     -0.722590
O       9.65981      3.93813     11.41036        -0.390634     -0.360630     -0.062306
O       9.73930      0.04006     11.21341        -0.197997     -0.254399      0.089884
O       9.73071      7.71027      2.47015        -0.516885     -1.218665      0.376830
O       9.47686      7.65137     15.81676         0.873882      0.378833     -0.113352
O       9.67657      7.72955      7.05314        -0.393823     -0.224114     -0.505969
O       9.47864      7.63869     11.35683         0.276144      0.926495      0.163721
O       9.53450     11.50254      2.80580         0.163189      0.292644     -0.354684
O       9.43126     11.55710     15.65336         0.192866      0.102005      0.169711
O       9.69569     11.47557      6.83320         0.006917      0.508198      0.456108
O       9.59175     11.44498     11.51934         0.585568      0.422757     -0.579295
