  # total energy = -7881.41433752 
CRSYTAL
PRIMVEC
    15.3600000000000000    0.0000000000000000    0.0000000000000000
     0.0000000000000000   15.3600000000000000    0.0000000000000000
     0.0000000000000000    0.0000000000000000    17.440000000000000
PRESSURE
1.81959 1.3186 -1.85046 0.216208 0.158978 -0.00321
PRIMCOORD
320 1
Pb       3.94254      3.78461      4.34255        -0.759608     -0.253069      0.305491
Pb       3.84380      3.80178     17.42819         0.026332      0.080842     -0.095751
Pb       3.80551      0.02250      4.36289        -0.147733     -0.382786     -0.012435
Pb       3.85523     15.30718     17.31402        -0.670208     -0.314171      0.411445
Pb       0.05605      3.84836      4.31818        -0.297928     -0.105965     -0.452979
Pb      15.35806      3.78208     17.40846        -0.045658     -0.140152      0.635791
Pb       0.03636      0.01464      4.37597         0.339846     -0.099036     -0.436145
Pb      15.26994      0.09868     17.34229         0.535244     -0.663172      0.385883
Pb       3.74830      3.89779      8.60563         0.035617     -0.551352      1.222787
Pb       3.71169     15.25959      8.69597        -0.028988      0.890354      0.632793
Pb      15.18648      3.91040      8.67745         0.905877     -0.621031      0.385294
Pb      15.29849     15.27267      8.70185         0.343175      0.126914      0.551530
Pb       4.03336      3.71050     12.97912        -0.890092      0.784110      0.532421
Pb       3.84311     15.34907     12.97015        -0.144232     -0.149705     -0.194344
Pb       0.01498      3.78153     13.00788        -0.190192      0.042474      0.346639
Pb      15.26391     15.19787     13.00402         0.117870      1.050808      0.587876
Pb       3.85519      7.69501      4.30016        -0.113718      0.225734      0.215889
Pb       3.78527      7.69844      0.02389         0.094016     -0.253928      0.174548
Pb       0.04544      7.64504      4.26788        -0.269574     -0.133902      0.277304
Pb       0.11905      7.68422      0.04063        -0.133115     -0.245051     -0.222972
Pb       3.72049      7.64250      8.63136         0.604544      0.121542      0.208554
Pb      15.18948      7.68002      8.66649         0.876791      0.337178      0.306620
Pb       3.89039      7.59984     13.09552        -0.322866     -0.050183      0.131149
Pb      15.35842      7.68487     13.03498        -0.348188     -0.337151      0.024842
Pb       3.82570     11.47866      4.36765         0.089723      0.512308     -0.339412
Pb       3.78791     11.50910     17.40040        -0.056495      0.590576     -0.135514
Pb       0.05945     11.55380      4.23618         0.065637      0.037513      0.619504
Pb      15.23204     11.44693      0.02447         0.734418      0.590381     -0.285659
Pb       3.84619     11.43187      8.68952         0.032186      0.722086      0.371441
Pb       0.03255     11.50777      8.71215        -0.269173      0.314944     -0.094513
Pb       3.86011     11.36626     12.92908         0.548028      0.664779      0.702843
Pb       0.08741     11.41530     13.01262        -0.674410      0.251186      0.211543
Pb       7.64515      3.81765      4.18046         0.405923      0.116746      1.407710
Pb       7.70331      3.75198      0.05437         0.291667      0.122938     -0.643708
Pb       7.63243     15.27968      4.36896         0.183024      0.112101      0.635740
Pb       7.53350     15.31666     17.40674        -0.015639      0.244594     -0.306843
Pb       7.48694      3.91319      8.59587         0.661149      0.073689      1.140629
Pb       7.65760      0.10350      8.71075        -0.001412     -0.198252      0.285053
Pb       7.72222      3.85305     13.00220        -0.081846     -0.357881     -0.352269
Pb       7.71486      0.01634     12.93643        -0.124009     -0.370353      0.019038
Pb       7.70019      7.65783      4.31142        -0.166657     -0.255946      0.047326
Pb       7.58098      7.68603      0.00979         0.021173     -0.349792     -0.028015
Pb       7.74673      7.62115      8.72232        -0.570259      0.267451     -0.291552
Pb       7.71748      7.68248     13.12848         0.436259      0.279632     -0.132711
Pb       7.64353     11.38732      4.33532        -0.337643      0.482165      0.216042
Pb       7.55635     11.63042     17.23345        -0.272071     -0.647276      0.734657
Pb       7.81907     11.52816      8.75962        -0.869411      0.112553     -0.445226
Pb       7.70079     11.62024     12.95512        -0.001464      0.101848      0.298536
Pb      11.52261      3.72536      4.26476         0.177464     -0.127320      0.721642
Pb      11.57193      3.84285      0.11415        -0.758629     -0.239656     -0.304087
Pb      11.65489     15.32410      4.35921        -0.398322      0.276565      0.159790
Pb      11.28899     15.28545      0.01164         0.499698      0.377724      0.052308
Pb      11.54357      3.83401      8.60406        -0.245000     -0.215766      0.209823
Pb      11.42897      0.06016      8.68022         0.178057     -0.071826     -0.118630
Pb      11.45352      3.77612     12.99863         0.276845      0.466563      0.237984
Pb      11.40322     15.29022     13.12058         0.439690      0.161089     -0.115780
Pb      11.57101      7.51504      4.30826         0.104311      0.310536      0.227925
Pb      11.38463      7.74775     17.40033         0.343155     -0.648615      0.016654
Pb      11.59241      7.70048      8.62659        -0.073269     -0.002189      0.133343
Pb      11.40200      7.54391     13.16722         0.679738      0.611720     -0.535850
Pb      11.44113     11.51279      4.23333         0.540968      0.092479      0.743029
Pb      11.43393     11.51964     17.35640         0.298029      0.142219      0.776318
Pb      11.35724     11.40828      8.71458         1.294152      0.358712      0.093718
Pb      11.58903     11.48858     13.05930        -0.326412     -0.388605      0.123401
Ti       1.95807      1.90614      2.36455        -1.070821     -0.752429     -0.247590
Ti       1.95181      1.94677     15.37428        -1.545374     -0.812410      0.482561
Ti       1.96078     13.40450      2.24850         0.431062      0.442713     -0.714294
Ti       1.92483     13.48897     15.29573        -0.705868     -0.024055      0.716412
Ti      13.45031      1.85751      2.27162         0.066970      0.713328      1.285595
Ti      13.29521      1.88824     15.49200         0.822784     -0.917670     -1.479152
Ti      13.44284     13.40884      2.36272         0.648664      0.752407     -0.940444
Ti      13.45984     13.32466     15.47051         0.565488      1.894385     -1.000104
Ti       1.85306      1.99220      6.71468         0.519315     -0.840625     -0.278152
Ti       1.94151     13.48566      6.69004        -1.087181      0.110016     -0.677119
Ti      13.48494      1.85402      6.67354        -1.051924      0.536434     -0.308127
Ti      13.38482     13.40107      6.75016         0.001293     -0.269866     -0.763469
Ti       1.87885      2.00565     11.01267        -0.961459     -1.007414     -1.768279
Ti       1.91632     13.43791     11.15546        -0.307493      1.336854     -1.333037
Ti      13.35340      1.94014     11.06334         0.430588     -1.191559     -1.082325
Ti      13.43341     13.47789     11.14121        -0.294467     -0.564011     -0.969702
Ti       1.96612      5.76976      2.37084        -2.159121     -0.370073     -0.971192
Ti       1.87611      5.72320     15.50345         0.017057      0.138378     -1.167370
Ti      13.42578      5.70210      2.36013         0.990163     -0.332594      0.218041
Ti      13.36044      5.68961     15.54239         0.215713      0.533963     -1.257622
Ti       1.86452      5.78604      6.66640        -0.355263      0.148448     -1.000722
Ti      13.48107      5.69762      6.66074        -0.775712      0.715658     -1.177688
Ti       1.93061      5.84566     11.00761        -1.026213     -1.247887     -0.906450
Ti      13.44745      5.73293     11.01238        -0.535765      0.655412      0.576163
Ti       1.95593      9.58899      2.27600         0.550639     -0.021612      0.087101
Ti       1.97479      9.63344     15.41270        -0.676667      0.707591     -0.253775
Ti      13.48982      9.67337      2.32264         0.339907     -1.237733      0.243814
Ti      13.38591      9.51798     15.47140         0.801464      0.210315     -0.302583
Ti       1.94953      9.64072      6.61337        -0.887567      0.010269     -0.322710
Ti      13.47894      9.63620      6.67885        -0.092135     -0.205887     -1.919171
Ti       1.97808      9.58874     10.99686        -0.826799     -0.370787     -0.731799
Ti      13.40703      9.58765     11.04568        -1.194524      0.118716     -0.145879
Ti       5.79486      1.90059      2.37909        -0.837003     -1.078357     -1.258841
Ti       5.71034      1.86123     15.36611         1.446960      0.195469     -1.166724
Ti       5.70915     13.49113      2.33253        -0.704893     -0.389074     -0.676458
Ti       5.69299     13.35588     15.26313        -0.522782      0.606162     -1.784709
Ti       5.70079      1.95654      6.77861        -0.430049     -0.634287     -1.382558
Ti       5.74572     13.51504      6.83181         0.135525     -0.636865     -0.671424
Ti       5.73865      1.91535     11.02305         0.456963      0.020075     -1.061160
Ti       5.74461     13.39030     10.96970         0.898001      0.270540     -0.674699
Ti       5.69563      5.75223      2.40531         0.985750     -0.019604     -1.430773
Ti       5.72470      5.71080     15.40822         0.162969     -0.527577      0.224657
Ti       5.63391      5.77620      6.59268         0.987184      1.197790     -0.393667
Ti       5.73924      5.83292     11.07028         0.232533     -0.442821     -1.014070
Ti       5.79276      9.67807      2.34379        -0.967409     -0.561941     -0.666786
Ti       5.69998      9.48563     15.36330         1.009135      0.640160     -0.140067
Ti       5.75955      9.66335      6.71944         0.312375     -0.899058     -0.334983
Ti       5.76664      9.49401     10.92553        -0.153439      0.819665     -0.635409
Ti       9.55033      1.84236      2.43935         1.033746      0.537726     -2.217529
Ti       9.49680      1.84048     15.35701         0.082555      1.317237      0.889334
Ti       9.53976     13.40209      2.38241         0.476949      0.655491     -1.551499
Ti       9.58093     13.41845     15.46315        -0.559692     -0.902815     -2.583211
Ti       9.50914      1.98733      6.73903         1.034779     -0.973333     -0.707362
Ti       9.49734     13.43356      6.70563         1.144736      1.127707      0.231347
Ti       9.61432      1.95686     11.03118        -0.471228     -0.424884     -0.667082
Ti       9.71918     13.39067     10.96742        -1.223428      0.586292      2.044063
Ti       9.55180      5.70398      2.35459         0.085072      0.191386     -1.401073
Ti       9.57360      5.81538     15.43163        -0.521130     -1.148776      0.012641
Ti       9.56231      5.78395      6.74853         0.127039     -0.588043     -1.456713
Ti       9.59044      5.80658     10.93676         0.837823     -0.268022      0.782762
Ti       9.68166      9.60346      2.27534        -0.974702     -0.430102     -0.043026
Ti       9.58103      9.66629     15.50819        -0.719927     -0.819824     -1.734904
Ti       9.59731      9.56482      6.60142         0.114354      0.269294      1.042105
Ti       9.50017      9.57833     11.06917         2.185801     -0.129608      1.101031
O       1.90477      1.73297      0.62150         0.484431      0.859959      0.169342
O       1.88215      1.99498     13.61923         0.093973     -0.043550      0.386075
O       2.04664     13.44466      0.45962        -0.026897     -0.279146      0.908857
O       1.82835     13.57727     13.49860         0.538520     -0.497190     -0.206454
O      13.31918      1.88274      0.54271        -0.000080     -0.031754     -1.198461
O      13.43992      1.88129     13.69499        -0.518515      0.376267      1.050714
O      13.59866     13.34229      0.60758        -0.452420     -0.044656      0.017032
O      13.31970     13.37985     13.69015         0.245985     -0.108458      0.124853
O       1.76143      1.89714      4.88612         0.628265      0.235360      0.798260
O       1.86892     13.49462      4.90627         0.474937     -0.380684      1.103479
O      13.40994      1.88449      4.87119         0.091759     -0.328589      1.250943
O      13.45384     13.48740      4.95457        -0.359470     -0.143481      0.156800
O       1.93539      1.95508      9.16007        -0.184374      0.074147      2.163923
O       1.74318     13.52300      9.37136         0.649627     -0.070665      0.028182
O      13.30101      1.97422      9.24217        -0.138546      0.037112      0.526989
O      13.45867     13.41687      9.39587        -0.137764      0.096984     -0.942176
O       1.95755      5.80949      0.57996         0.200392      0.041034     -0.482398
O       1.81706      5.74719     13.71625         0.015564      0.006710      0.853585
O      13.25396      5.69093      0.62339         0.056153      0.198597     -0.713807
O      13.36518      5.73480     13.77250         0.217464     -0.186645      0.032363
O       1.76694      5.79602      4.84429         0.370183     -0.174019      1.238431
O      13.55610      5.55697      4.88893        -0.308258      0.925326     -0.182217
O       1.83674      5.82122      9.20117         0.283923      0.006571      0.836456
O      13.50011      5.84387      9.23016        -0.109441     -0.530404      0.354149
O       2.04689      9.49022      0.49257        -0.321337      0.202324     -0.446334
O       1.96675      9.72348     13.61625        -0.007558     -0.664972      0.343869
O      13.52528      9.62229      0.53374        -0.314204      0.046416      0.569469
O      13.37372      9.63334     13.73675         0.576962     -0.164856     -0.389968
O       1.90806      9.71634      4.77622         0.224503     -0.325559      1.862394
O      13.50356      9.62778      4.83770        -0.220592      0.037124      1.077274
O       1.92089      9.49244      9.22496         0.108140      0.557364      0.808775
O      13.43739      9.59047      9.25112         0.035450     -0.065967      0.315593
O       5.75779      1.80306      0.55925         0.088167      0.162684      0.976733
O       5.84174      2.01608     13.52981        -0.414271      0.042666      0.821370
O       5.61839     13.54758      0.51862         0.365076     -0.230393      1.073497
O       5.73134     13.30681     13.40539        -0.105992      0.287781      1.510547
O       5.71629      1.96033      4.92908        -0.111571      0.160514      1.244766
O       5.67948     13.41922      5.05606         0.396573      0.085281      0.134824
O       5.79794      2.00071      9.21799        -0.221447     -0.292865      0.880125
O       5.87473     13.54552      9.14669        -0.591948     -0.511256      1.267493
O       5.90618      5.73984      0.59763        -0.917693     -0.091164      1.227131
O       5.59161      5.72347     13.58399         0.744171      0.217203      0.860260
O       5.89374      5.67010      4.80101        -0.864412     -0.040586      0.897334
O       5.65768      6.01581      9.32197         0.170348     -0.380819      0.065924
O       5.79041      9.61372      0.57149        -0.033657     -0.085602      0.462910
O       5.62502      9.41845     13.56930         0.166258      0.398763      1.096856
O       5.72979      9.73876      4.90353        -0.002320     -0.260699      0.338662
O       5.69530      9.38483      9.12444         0.310972      0.391803      0.982423
O       9.49866      1.87842      0.58585         0.203174     -0.610405      1.216099
O       9.56166      1.94287     13.60368        -0.343975     -0.036919     -0.574237
O       9.67722     13.44913      0.55172        -0.958653      0.003085      0.984523
O       9.59199     13.29256     13.62776        -0.146519      0.396417      1.141170
O       9.57931      1.93895      4.96817        -0.255610      0.261452     -0.282952
O       9.50558     13.50574      4.95919        -0.031112     -0.573813     -1.071788
O       9.64301      1.77002      9.25918        -0.039543      0.553878      0.210151
O       9.76166     13.42080      9.25353        -0.525440     -0.233151     -1.317603
O       9.55667      5.78271      0.53118         0.155913      0.035817      1.102873
O       9.71253      5.86809     13.61745        -0.954320     -0.494838      1.039851
O       9.47620      5.57542      4.93993         0.216926      0.770155      1.151402
O       9.73660      5.91756      9.20427        -0.427009      0.140251     -0.960326
O       9.67600      9.64077      0.49092        -0.181853     -0.303883      0.611444
O       9.50921      9.53787     13.73863        -0.047025      0.220646     -0.153029
O       9.55475      9.64367      4.87339         0.078390      0.044078     -0.798433
O       9.76037      9.60609      9.34946        -0.862565     -0.076023     -1.159062
O       3.85029      1.96497      2.80758        -0.092391     -0.517041     -0.142373
O       3.85209      1.90698     15.74852        -0.395530      0.407293      0.008219
O       3.85807     13.47453      2.86830         0.422090     -0.188038     -0.325380
O       3.80806     13.45394     15.73927         0.566683      0.424490     -0.271578
O      15.31679      1.80342      2.68535         0.868592      0.272509      0.011468
O       0.01112      1.95124     15.89607        -0.377072      0.170654     -0.317977
O       0.14697     13.38325      2.70437        -1.990577     -0.240705      0.049924
O       0.05153     13.44533     15.71328        -0.861105     -0.635628      0.157712
O       3.76080      1.93534      7.18808         1.110815      0.202565     -0.683482
O       3.84842     13.47975      7.18280        -0.505053     -0.297271     -0.099108
O      15.35139      1.91719      7.06248        -0.824381      0.255346      0.072702
O      15.34067     13.45290      7.04705        -0.047919      0.192688      0.463206
O       3.78952      2.03039     11.43888         0.736572     -0.644521     -0.389072
O       3.87573     13.59644     11.27974        -0.600254     -0.437077      0.281791
O      15.22203      1.85591     11.22880         1.204359      0.287006      0.668239
O      15.31450     13.47923     11.32011         0.580133     -0.355346      1.240876
O       3.74453      5.79306      2.74902         2.358749     -0.248369      0.367726
O       3.85306      5.64432     15.83610         0.013488     -0.222862      0.126182
O       0.03871      5.73633      2.64170        -1.228830      0.255303      0.365482
O      15.29797      5.67068     15.96346         0.168660      0.753663     -0.225049
O       3.72550      5.70210      7.03234         1.046177      0.145884     -0.324587
O      15.34066      5.74447      7.04706         0.854095     -0.035630      0.384037
O       3.75609      5.83646     11.41151         0.921322     -0.237058      0.140268
O       0.03561      5.70637     11.42846        -1.500069      0.411238      0.213104
O       3.85234      9.39111      2.69709         0.542795      0.670993      0.115311
O       3.90181      9.62430     15.86415        -1.034658     -0.460215     -0.271009
O       0.10204      9.81269      2.56266        -1.875049     -0.639919      0.086627
O       0.05830      9.51533     15.82839         0.040985      0.110205     -0.067662
O       3.81722      9.76957      7.16113        -0.534416     -0.670619     -0.972914
O       0.00278      9.63640      7.07633         1.150110     -0.046991     -0.077416
O       3.89577      9.65759     11.34631        -1.073631     -0.966086     -0.083578
O      15.32423      9.68327     11.42325         0.826393     -0.404845      0.131274
O       7.67339      1.80018      2.69969        -0.631088      0.414446      0.323539
O       7.64303      1.74659     15.79725        -0.325149     -0.214345      0.127194
O       7.61467     13.47651      2.71579         0.798270     -0.148453      0.000662
O       7.52648     13.44629     15.69560         1.049569     -0.310463      0.479539
O       7.60965      2.00616      7.13220        -0.028113      0.059847     -0.014378
O       7.63880     13.57335      7.19721         0.648653     -1.054943     -0.162425
O       7.65431      1.94467     11.42615         0.446686      0.082739      0.125009
O       7.70828     13.38710     11.29450        -0.004742      0.237415      0.295266
O       7.68278      5.68337      2.71984        -0.460944      0.494318      0.052630
O       7.61774      5.86570     15.89765         0.198604     -0.157782     -0.853302
O       7.60456      5.90105      7.15222         0.071266     -0.411899     -0.235600
O       7.71939      5.78408     11.21169        -0.527376      0.296470      0.760681
O       7.63041      9.59002      2.77819         0.902419     -0.310800     -0.209700
O       7.64464      9.58243     15.78427        -1.020594     -0.009448      0.226185
O       7.67052      9.54942      7.06092         0.393700      0.105010      0.061187
O       7.59310      9.61384     11.35421         0.708433     -0.324689      0.097254
O      11.48966      1.94260      2.74485         0.264903     -0.090059     -0.046789
O      11.37635      1.75280     15.83395         0.700374      0.427604     -0.094521
O      11.49839     13.31908      2.56434         0.065349      0.504547      0.814085
O      11.42646     13.26868     15.86698         1.130004      0.721206     -0.163372
O      11.47320      2.06829      7.08066         0.477228     -0.775584     -0.139015
O      11.42096     13.37566      7.08954         1.179721      0.541400     -0.162017
O      11.42010      1.89318     11.54629         0.790013      0.101340     -0.047390
O      11.52093     13.39279     11.44475        -0.325106     -0.004658      0.357967
O      11.51626      5.60435      2.82802        -0.143093      0.869785     -0.248465
O      11.37915      5.59897     15.86394         0.398723      0.562072      0.212152
O      11.57725      5.88025      6.96889        -0.988517     -0.428621      0.130602
O      11.48552      5.72359     11.43630         1.191769      0.195930     -0.004341
O      11.49746      9.65466      2.71416         0.383792     -0.279621     -0.261938
O      11.54058      9.69382     15.75237        -0.821361      0.034957      0.690673
O      11.53405      9.52541      7.05433        -0.185400      0.405830     -0.238002
O      11.45428      9.53869     11.45075         0.635812      0.572925      0.155852
O       1.84098      3.86769      2.69014         0.651641     -1.043114      0.036295
O       1.85256      3.81164     15.95525         0.799161     -0.114633     -0.237931
O       1.97845     15.25448      2.75332         0.026038      1.428270      0.186282
O       1.79121     15.33257     15.92546         1.163764      1.020585     -1.161092
O      13.51359      3.77514      2.68004        -0.335172      0.348078      0.054008
O      13.35708      3.80333     15.88858        -0.243747     -0.445271      0.305735
O      13.47710      0.00276      2.75748        -0.676253     -1.456805     -0.063629
O      13.51133     15.31240     15.76061        -0.850485      0.047858      0.409108
O       1.97137      3.84609      7.22494        -1.266594      0.551782     -1.222417
O       1.90190      0.06382      7.11916         0.035623     -0.847191     -0.164542
O      13.44117      3.85384      7.00331         0.114902     -0.797912      0.659427
O      13.40349     15.34785      7.21609        -0.257347      0.276924     -0.808036
O       1.77450      3.83736     11.49021         0.786531      0.188629     -0.575653
O       1.85007      0.05191     11.54168         0.530885      0.261590     -0.364826
O      13.39074      3.75992     11.44955        -0.109288      1.865910      0.066913
O      13.32675      0.02229     11.56350        -0.196895     -0.520278     -0.211990
O       1.83194      7.68878      2.71992         0.079660      0.356205      0.079035
O       2.00229      7.64336     15.80215        -0.124599      0.314170      0.071265
O      13.54069      7.69063      2.76041        -0.786874      0.316634     -0.301945
O      13.21032      7.62066     15.78714         0.569202      0.348464      0.539971
O       2.00704      7.72178      7.03930        -0.584796      0.232110     -0.777726
O      13.56101      7.66810      7.07120        -0.555927      0.275255     -0.335861
O       1.79854      7.69670     11.46836         0.539499      0.577010     -0.013239
O      13.37187      7.66995     11.41161         0.825540     -0.675925      0.168848
O       2.05317     11.46552      2.61147         0.478419      0.434665      0.204269
O       2.06890     11.60891     15.63135        -0.540073     -1.867242      0.463283
O      13.37418     11.53552      2.76174         0.519642     -0.367860      0.007741
O      13.51525     11.52156     15.84850        -0.143612     -1.133993      0.374684
O       1.89454     11.61910      7.18221         0.296521     -1.013493     -0.386333
O      13.48368     11.49332      7.02988        -0.338722      0.433914      0.428410
O       2.00315     11.52152     11.36725        -0.355415     -0.283509      0.211188
O      13.39167     11.49753     11.54497         0.252896     -0.035732     -0.157780
O       5.62186      3.77177      2.75888         0.817068      0.587508     -0.450335
O       5.91454      3.73964     15.83072        -0.721606      0.935341     -0.136983
O       5.80184     15.33491      2.86237        -0.669810      0.490753     -0.383190
O       5.70656     15.32044     15.64727        -0.137151      0.156039      0.151867
O       5.71675      3.92948      7.14420        -0.276113     -0.286328     -0.464478
O       5.77519      0.07929      7.11382        -0.272641     -0.035718     -0.079530
O       5.86847      3.89984     11.35753        -0.740706     -0.092747      0.409844
O       5.78273      0.02773     11.47158        -0.084672      0.253063     -0.433244
O       5.73694      7.55656      2.84727         0.398098      1.105240     -0.295030
O       5.64000      7.61698     15.93503         0.387383      0.298696     -0.868083
O       5.54730      7.65229      6.92079         0.163015      0.151874     -0.099740
O       5.80465      7.70354     11.59407        -0.387465     -0.504665     -0.396424
O       5.66250     11.53799      2.69644         0.341447     -0.146963      0.045658
O       5.66905     11.52197     15.77869         0.265000     -0.627902     -0.242946
O       5.82436     11.47830      7.13027        -0.039675      0.980948      0.449620
O       5.73310     11.49420     11.32054        -0.089380     -0.168930     -0.385278
O       9.49602      3.83891      2.64176         0.407612     -0.749333      0.290026
O       9.39477      3.74951     15.77301         0.177219      0.526628     -0.173855
O       9.72801      0.02566      2.83963        -0.692768     -1.486922     -0.269514
O       9.54759     15.20669     15.74544         0.042955      1.537022      0.451943
O       9.53141      3.85625      7.19906        -0.037215      1.136624     -0.016350
O       9.52835      0.03247      7.05237         0.262171      0.085349      0.339862
O       9.69442      3.87221     11.23041        -0.730297     -0.098024      0.647358
O       9.65616      0.00852     11.48001        -0.491836     -0.743306     -0.233007
O       9.64994      7.64860      2.79941        -0.134063      0.458676     -0.339437
O       9.55912      7.75236     15.80379         0.574642     -1.194731      0.425835
O       9.59765      7.72234      7.04911        -0.063138     -0.470803     -0.099926
O       9.65624      7.68713     11.59928        -1.119210     -0.075100     -0.627748
O       9.49824     11.51008      2.67885         0.149918     -0.278068      0.228349
O       9.49971     11.50695     15.86631        -0.105895      0.358284      0.337943
O       9.67236     11.53663      7.14089        -1.336009     -1.045307     -0.307005
O       9.55876     11.48534     11.49417         0.149502      0.043869     -0.655985
