  # total energy = -7882.35266545 
CRSYTAL
PRIMVEC
    15.3600000000000000    0.0000000000000000    0.0000000000000000
     0.0000000000000000   15.3600000000000000    0.0000000000000000
     0.0000000000000000    0.0000000000000000    17.440000000000000
PRESSURE
-0.337763 -0.673269 -2.79734 -0.07809 -0.352383 0.020634
PRIMCOORD
320 1
Pb       3.87156      3.78199      4.29836        -0.071432      0.413011     -0.222906
Pb       3.75145      3.85485     17.42946         0.108207     -0.386251     -0.289278
Pb       3.84210     15.31565      4.31442        -0.255743     -0.090912     -0.360143
Pb       3.83531     15.26810     17.42222         0.030792      0.241180     -0.560704
Pb       0.01814      3.83613      4.30089        -0.553979      0.035446     -0.380629
Pb      15.26267      3.76961     17.34878         0.094904      0.084770     -0.186627
Pb      15.34956      0.01480      4.38801        -0.514831     -0.189664     -0.533455
Pb       0.14221      0.03510     17.37489        -0.332205     -0.484555     -0.414345
Pb       3.90308      3.81826      8.69223        -0.302284     -0.260480     -0.429602
Pb       3.82766     15.34487      8.56544        -0.006771      0.177144     -0.010799
Pb       0.13820      3.82201      8.74038        -0.328822     -0.444204     -0.482043
Pb       0.01181     15.28590      8.69039         0.074869      0.169631     -0.322109
Pb       3.86804      3.88080     13.11510         0.048694      0.379667     -0.696786
Pb       3.94362      0.10982     13.12196        -0.423517     -0.811352     -0.975015
Pb       0.01466      3.86535     12.99144        -1.123290     -0.060499      0.204598
Pb      15.33108     15.30519     13.10432        -0.322810      0.331332     -0.682496
Pb       3.78764      7.65220      4.36763         0.132920     -0.182417     -0.223862
Pb       3.89572      7.69606     17.38163         0.057800     -0.365666     -0.090518
Pb      15.23048      7.65550      4.33034         0.175093     -0.067577     -0.665288
Pb       0.07874      7.55832      0.02702        -0.677669      0.261143     -0.639412
Pb       3.72654      7.72286      8.60342         0.510488     -0.557808      0.385908
Pb      15.34163      7.73000      8.64109        -0.495017      0.055251     -0.227720
Pb       3.88971      7.70837     13.03221        -0.497786     -0.110132     -0.425454
Pb      15.26188      7.67323     12.99651        -0.102542     -0.285813      0.003796
Pb       3.93460     11.46167      4.41234        -0.011434     -0.018863     -0.582421
Pb       3.68529     11.58938      0.00557         0.032515     -0.087695     -0.552196
Pb      15.26528     11.37969      4.42790        -0.241694      0.154923     -0.639988
Pb       0.02835     11.46863      0.02991        -0.086602      0.004726     -0.202280
Pb       3.88490     11.44395      8.63503        -0.497010      0.372789      0.424140
Pb       0.00901     11.62264      8.67968        -0.153406     -0.299115     -0.105439
Pb       3.77143     11.52501     13.07498        -0.159784      0.026624     -0.797927
Pb      15.28375     11.49688     12.96539        -0.195770     -0.037175     -0.125139
Pb       7.59847      3.90271      4.25239         0.575205     -0.281529     -0.219920
Pb       7.59679      3.77428      0.05947         0.381462      0.102916     -0.239825
Pb       7.58273     15.24847      4.40297         0.825535      0.153491     -0.928856
Pb       7.81419     15.30280      0.00128        -0.374327     -0.208188      0.311922
Pb       7.66528      3.86763      8.63284         0.173755     -0.280911     -0.155501
Pb       7.66806      0.11418      8.73537         0.230083     -0.642891     -0.458583
Pb       7.63222      3.74727     12.97446         0.254321      0.720625     -0.505471
Pb       7.63683     15.26831     13.10450         0.084106     -0.392650     -0.685291
Pb       7.71183      7.74494      4.39660        -0.077379     -0.176788     -0.487971
Pb       7.62094      7.69723     17.38626         0.094017     -0.454436     -0.180004
Pb       7.75527      7.53108      8.74191        -0.457977      0.561391     -0.541924
Pb       7.77094      7.71582     13.13045         0.354125     -0.351359     -1.011138
Pb       7.63755     11.49106      4.35978         0.425813     -0.029457     -1.144290
Pb       7.67049     11.41800     17.36950        -0.019521      0.434714     -0.140649
Pb       7.66936     11.56472      8.73069         0.043085      0.010237     -0.103133
Pb       7.55738     11.46259     13.01727         0.385398      0.293341     -0.069155
Pb      11.50817      3.92399      4.32532        -0.173554     -0.528577     -0.332996
Pb      11.46951      3.82793     17.42475        -0.248097     -0.471860     -0.722630
Pb      11.56792      0.00390      4.44413        -0.330759     -0.063901     -0.740006
Pb      11.54156      0.02739      0.04626        -0.287629     -0.093713     -0.447496
Pb      11.57050      3.68251      8.68373        -0.379095      0.206628     -0.470085
Pb      11.52787      0.10198      8.73303        -0.590209     -0.427907     -0.666935
Pb      11.49404      3.82414     12.94857         0.070974      0.036602     -0.044912
Pb      11.50480     15.35515     13.11596         0.277455      0.279832     -0.397081
Pb      11.51081      7.62059      4.42612        -0.104250      0.013570     -0.800683
Pb      11.48460      7.74420     17.35585        -0.060512     -0.104216     -0.495304
Pb      11.52971      7.67109      8.68409         0.043522      0.292210     -0.200249
Pb      11.57212      7.60768     13.15341        -0.336232      0.344794     -1.011050
Pb      11.46152     11.57013      4.29504        -0.310769     -0.082078     -0.353110
Pb      11.52889     11.50576     17.41481        -0.078433     -0.077371     -0.023472
Pb      11.50537     11.52004      8.65122         0.036297     -0.133455     -0.437584
Pb      11.51372     11.57163     13.12549         0.203345     -0.827282     -0.752764
Ti       1.85537      1.87215      2.31560         0.038446      0.162766     -0.510416
Ti       1.92318      1.85268     15.25559        -0.458676      0.258407      1.950663
Ti       1.89000     13.32953      2.43190        -0.198707      0.610639     -0.469736
Ti       1.85101     13.37522     15.20407         0.194913     -0.006734      0.772389
Ti      13.35316      1.84923      2.25357        -0.606964      0.001389      1.075738
Ti      13.36854      1.84000     15.41104        -0.539994      0.294787     -1.400785
Ti      13.50445     13.36465      2.27439        -1.177809      0.361006      0.752297
Ti      13.45811     13.37154     15.41367        -0.323753      0.654569      0.018433
Ti       1.83921      1.90632      6.54249         0.778237     -0.452923      2.505321
Ti       1.92039     13.38450      6.57958        -0.179917      0.621200      0.217892
Ti      13.41931      1.87597      6.63699        -0.392171      0.383150     -1.124092
Ti      13.40360     13.40366      6.60113        -0.228049     -0.172497      0.916217
Ti       1.90840      1.96507     11.05411        -0.469990     -1.679470     -0.141740
Ti       1.83244     13.41588     11.03643         0.787330      0.366717      1.403886
Ti      13.37918      1.90294     10.96245         0.185110     -0.080176      1.100584
Ti      13.34916     13.44645     10.89498         0.771115     -0.046048     -0.001632
Ti       1.87453      5.71964      2.27874         0.138776      0.820948      1.018314
Ti       1.85204      5.66852     15.37358         0.153769      0.341494     -0.540630
Ti      13.40139      5.65294      2.18691        -0.063466      0.514013     -0.520021
Ti      13.37803      5.75091     15.36705         0.242596     -0.322173      0.472825
Ti       1.86241      5.71737      6.56212         1.145876     -0.569610     -0.476484
Ti      13.44179      5.72194      6.69397        -0.409645     -0.316657      0.334561
Ti       1.86148      5.71486     10.99294         0.125796      0.464450      1.584141
Ti      13.38061      5.75524     10.86337        -0.298875      0.580645      0.359967
Ti       1.86121      9.60620      2.38694        -0.107665     -0.574720     -0.707026
Ti       1.91659      9.50464     15.41842        -0.671611      0.911799     -1.197039
Ti      13.29209      9.51540      2.26475         0.749739      0.383452     -0.067023
Ti      13.48001      9.58990     15.39023        -0.416265     -0.362868      0.264556
Ti       1.84479      9.57813      6.65657        -0.047087      0.486062      0.064789
Ti      13.36309      9.57283      6.56955        -0.119836      0.206812      1.832683
Ti       1.80885      9.53496     11.04339         0.531121      1.204946      0.187179
Ti      13.34977      9.56839     10.92451        -1.241721     -0.114656      0.522760
Ti       5.70155      1.82457      2.25693        -0.133219      0.915262     -0.928065
Ti       5.70224      1.96343     15.36478         0.134534     -1.057808      1.087850
Ti       5.71301     13.42662      2.13861         0.991104     -0.554655      0.302965
Ti       5.71735     13.45120     15.36470         0.277378     -0.611951      1.137160
Ti       5.76703      1.90791      6.59442        -0.913224     -0.368119      0.128628
Ti       5.81889     13.40096      6.64192        -0.879076      0.412235      1.243155
Ti       5.73847      1.84225     11.03294        -0.532225      0.582998     -0.734933
Ti       5.72786     13.43619     10.97094        -0.570154     -0.472133     -0.296736
Ti       5.77028      5.78607      2.39299         0.422510      0.608353     -1.714964
Ti       5.80146      5.67683     15.37143        -1.124594      0.644286     -0.000932
Ti       5.73959      5.74316      6.66741        -0.632673     -0.088212     -0.275405
Ti       5.72965      5.72530     10.94647         0.154946     -0.214332      0.447268
Ti       5.67759      9.56976      2.22452         0.489718     -0.293931      1.359480
Ti       5.70171      9.58013     15.32808         0.324555      0.983232      0.583960
Ti       5.72538      9.52796      6.71642         0.203595      0.301604     -0.705400
Ti       5.70058      9.60512     11.01323        -0.168019     -0.393630     -0.949066
Ti       9.53029      1.87849      2.36504         0.236469     -0.080540     -0.260347
Ti       9.44056      1.77772     15.28718         2.373969      0.894723      0.797296
Ti       9.61380     13.42823      2.21010        -0.382710     -0.267557      0.659658
Ti       9.56316     13.36730     15.44517         0.334259      0.106968      0.505341
Ti       9.50326      1.89974      6.58212         0.554114     -0.631336      0.105111
Ti       9.59079     13.37901      6.62251         0.144792      1.384154     -0.036426
Ti       9.52022      1.86147     10.99324         1.110923      0.356936     -0.723710
Ti       9.66212     13.36005     10.99640        -1.354150      0.340029     -1.222621
Ti       9.60377      5.76248      2.23510        -0.490442     -0.104224      1.819132
Ti       9.56081      5.58518     15.29490         0.418061      0.404301      0.498589
Ti       9.66383      5.72407      6.56992        -0.700923     -0.222664      0.101862
Ti       9.54636      5.77748     10.88931         0.179023     -0.446384      3.202751
Ti       9.49691      9.53406      2.32391         0.504560      0.943602     -0.341239
Ti       9.56878      9.57061     15.35247         0.606463     -0.479626     -0.929959
Ti       9.51655      9.56411      6.67365         1.127844      0.083120     -1.322210
Ti       9.52636      9.62776     10.97402         1.481476     -1.362107      0.772252
O       1.75773      1.99056      0.50589         0.492538     -0.634004      1.660935
O       1.90561      1.90845     13.52384         0.135196      0.094481     -0.651769
O       1.82790     13.27689      0.62917         0.142694      0.421277      0.608338
O       1.79955     13.32586     13.41611         0.073706      0.289166      0.925822
O      13.15061      1.87151      0.45838         0.851011      0.149408      0.786976
O      13.35445      1.76816     13.55328        -0.139306      0.056085      1.819631
O      13.50329     13.32872      0.52439         0.098481      0.331216     -0.062537
O      13.46024     13.46226     13.59643        -0.249848     -0.404896      1.116922
O       1.91984      1.89192      4.82177        -0.445291      0.132998     -1.240078
O       1.97171     13.49349      4.79272        -0.102321     -0.386005      0.545972
O      13.40534      1.88636      4.78003         0.035147      0.043083      2.117850
O      13.28416     13.44862      4.85255         0.398022     -0.103852      0.044462
O       1.80093      1.94452      9.28782         0.148202      0.002849      0.415095
O       1.64912     13.37445      9.29651         0.494258      0.297683     -0.393500
O      13.33446      1.93225      9.18583        -0.030351     -0.175172     -0.177620
O      13.43549     13.48538      9.10005        -0.242380     -0.331530      0.675722
O       1.86740      5.76282      0.49907         0.261236     -0.094872      0.276283
O       1.69878      5.65216     13.57957         0.617402     -0.017794      0.785998
O      13.45048      5.66906      0.36968        -0.307593      0.153652      1.611399
O      13.38357      5.73143     13.59448         0.204616      0.278667      0.315497
O       1.91237      5.73151      4.75772        -0.419953     -0.159964      1.153385
O      13.32028      5.73840      4.91762         0.465331     -0.205932      0.230036
O       1.91714      5.63833      9.27381        -0.126514      0.275484     -0.893002
O      13.23326      5.90197      9.04702         0.910360     -0.638013      1.289018
O       1.95417      9.70614      0.58703        -0.463652     -0.380051      0.104701
O       1.94818      9.60057     13.60674        -0.069957     -0.150998      0.924746
O      13.48170      9.53289      0.47477        -0.482435     -0.101823      1.450279
O      13.41760      9.63126     13.58694        -0.103159     -0.074764      0.796745
O       1.81153      9.77344      4.90068         0.447185     -0.663167      0.250327
O      13.34321      9.62280      4.83229         0.132144     -0.356148     -0.489519
O       1.79493      9.60863      9.27989         0.183588     -0.596876     -0.231413
O      13.29543      9.36173      9.14501         0.371777      0.472347      0.503665
O       5.49907      1.96602      0.46112         0.838610     -0.325187      0.756837
O       5.74971      1.88753     13.58481        -0.269937      0.274370     -0.077051
O       5.74168     13.49998      0.34509        -0.469384     -0.209505      1.030567
O       5.82656     13.45925     13.59714        -0.117261     -0.213689      0.127503
O       5.87352      1.86182      4.81971        -0.695267      0.138826      0.088736
O       5.87154     13.42062      4.86175        -0.468313     -0.001663      0.433097
O       5.65512      1.82568      9.26039         0.258182     -0.096596      0.198240
O       5.65515     13.49324      9.16584         0.157109     -0.370759      0.824959
O       5.82978      5.97944      0.52127        -0.395354     -0.699723      1.457739
O       5.63532      5.55439     13.60248         0.615632      0.225667      0.175427
O       5.63138      5.73762      4.88091         0.675398     -0.117116      0.239449
O       5.72449      5.71031      9.15284         0.094682      0.053724      0.363234
O       5.74987      9.34659      0.46928        -0.056105      0.686212      0.298557
O       5.64430      9.79230     13.55045         0.281791     -1.140200      0.451689
O       5.66181      9.60068      4.90914         0.015578      0.183219      0.881656
O       5.62582      9.55073      9.19951         0.184446      0.315873      0.890342
O       9.61475      1.82146      0.55295        -0.220905      0.372210      0.936233
O       9.64846      1.83566     13.50913        -0.675389     -0.306235      0.317415
O       9.56420     13.47264      0.40254         0.018006     -0.330260      0.783312
O       9.47857     13.56932     13.69145         0.302730     -0.577375     -0.528815
O       9.50282      1.87583      4.81333        -0.267910     -0.152826      0.285990
O       9.62891     13.57915      4.82670        -0.597431     -0.514604      1.032349
O       9.63957      1.89375      9.14836        -0.591797     -0.045438      1.649058
O       9.54941     13.31695      9.17495         0.371598     -0.294646      1.580563
O       9.55243      5.65735      0.53024         0.021536      0.102639     -1.883108
O       9.58525      5.58438     13.52006        -0.348303      0.318347      1.110665
O       9.58230      5.82619      4.77243         0.254121     -0.005333      1.394749
O       9.32459      5.73552      9.17028         0.498180      0.007733     -0.727347
O       9.66375      9.60278      0.53528        -0.582149     -0.219072      0.257722
O       9.57026      9.46790     13.53121        -0.216363      0.463847      1.158155
O       9.63011      9.56674      4.81497        -0.646340     -0.303808      1.670676
O       9.64864      9.54878      9.19956        -0.568926      0.391702     -0.307481
O       3.78806      1.88061      2.62182        -0.769096     -0.118725      0.517985
O       3.79971      1.90133     15.81173        -0.068621      0.404796     -0.603433
O       3.80511     13.47732      2.64632         0.158282      0.070600      0.168050
O       3.71035     13.37486     15.82067         0.807299      0.040965     -0.529830
O      15.21597      1.90111      2.74640         1.041017      0.288543     -0.443982
O       0.01730      1.84704     15.69605        -0.673611     -0.268602      0.144672
O      15.30389     13.32789      2.78200         0.788656      0.221700      0.133222
O       0.01984     13.51837     15.72634        -0.202129     -0.082943      0.019017
O       3.79615      1.85325      6.91271        -0.131747      0.141428      0.181106
O       3.75509     13.46770      7.04198         0.482535     -0.241270     -0.239119
O      15.27134      1.95147      7.06896         0.186463     -0.284180     -0.440947
O       0.03046     13.39966      7.07908        -0.923384     -0.207784     -0.563951
O       3.83977      1.91374     11.37687        -0.572733     -0.028989      0.492833
O       3.83221     13.41753     11.46105        -0.162145      0.140340     -0.308006
O      15.19212      1.81866     11.47926         1.153558      0.306896     -0.310511
O      15.17617     13.32453     11.40525         1.048595      0.460389     -0.080955
O       3.88145      5.86945      2.81942        -0.915472      0.051957     -0.776733
O       3.84044      5.73226     15.60448        -0.703193     -0.409535      0.684162
O       0.00554      5.65543      2.63241        -0.790731      0.129213      0.054198
O      15.31319      5.74687     15.80833         0.651873      0.016449     -0.000797
O       3.77745      5.62298      6.87638        -0.031992      0.119303      0.831130
O       0.01016      5.58158      7.02686        -0.501207      0.442536     -0.061784
O       3.74653      5.58210     11.43954         0.722107      0.521320     -0.010735
O      15.28542      5.80751     11.36644         0.425581      0.053755     -0.336031
O       3.75629      9.37952      2.68955         0.992112      0.585499      0.022291
O       3.83281      9.55645     15.80359        -0.146256      0.314520     -0.113334
O      15.21373      9.57963      2.84181         0.419700      0.329057     -0.331876
O      15.30733      9.52784     15.76482         1.309166      0.041818      0.185961
O       3.79135      9.50619      7.18639        -0.771865      0.576814     -0.701830
O      15.32203      9.57858      7.01326         0.021230     -0.278530      0.032534
O       3.80616      9.58674     11.44368         0.125723     -0.237780     -0.040295
O      15.22587      9.63109     11.35200         1.150919     -0.418387      0.117751
O       7.53829      1.95804      2.67665         0.780475      0.063697     -0.309910
O       7.64469      1.92003     15.81917        -0.931870     -0.463402     -0.332141
O       7.61665     13.38584      2.60581        -0.459967     -0.083156      0.056452
O       7.66999     13.37952     15.88255        -0.534910      0.160479     -0.523737
O       7.61077      1.83421      7.00709         0.324066      0.240897      0.381887
O       7.62227     13.35433      7.20152        -0.051143      0.057018     -0.850032
O       7.61927      1.75733     11.40024         1.031366      0.317581     -0.055381
O       7.67784     13.38827     11.30534         0.344255     -0.043119      0.386592
O       7.67959      5.72050      2.70605        -0.880404     -0.087087      0.198791
O       7.65271      5.64179     15.79019         0.531291      0.430330     -0.299817
O       7.62360      5.74278      6.99440         0.396504      0.057943      0.082298
O       7.59909      5.66357     11.51761         0.366261      0.388200     -0.656651
O       7.62350      9.70905      2.74815        -0.447873      0.069035     -0.197545
O       7.67425      9.63766     15.70723        -0.583304     -0.386262     -0.027810
O       7.61879      9.57435      7.04587         0.217280      0.105284     -0.012482
O       7.63797      9.64336     11.37611        -0.633262     -0.636578      0.195561
O      11.39607      1.96238      2.85489         0.822031     -0.532592     -0.729427
O      11.42984      1.85438     15.73783         0.300391     -0.102624     -0.048115
O      11.44354     13.44053      2.70679         0.571043      0.081868     -0.429502
O      11.53179     13.33851     15.75835        -0.136528      0.039058     -0.200058
O      11.40573      1.85918      7.03486         1.065002     -0.199334     -0.014386
O      11.40872     13.35913      7.06809         1.045172      0.382039     -0.195018
O      11.48642      1.97548     11.35240        -0.457253      0.045327      0.029186
O      11.55610     13.26166     11.43193        -1.676000      0.370254      0.018662
O      11.46531      5.79724      2.70944         0.840086     -0.059578     -0.359884
O      11.47506      5.77637     15.68371        -0.627556     -0.479147      0.232939
O      11.48928      5.69755      7.03476        -0.538909      0.258418     -0.355631
O      11.48675      5.79002     11.40307        -0.541727     -0.318514     -0.642682
O      11.42022      9.52919      2.69845         1.123257     -0.246629     -0.124605
O      11.57455      9.67255     15.84555        -0.558485     -0.541507     -0.349948
O      11.49893      9.54956      7.00667        -0.381201     -0.055746      0.002083
O      11.42538      9.52247     11.43166         0.458855     -0.052110     -0.090223
O       1.89340      3.87157      2.75605         0.396220     -0.956344     -0.352414
O       1.80037      3.77155     15.89326         0.661399      0.427943     -0.831133
O       1.76519     15.34688      2.80995         0.453511      0.390466     -0.658169
O       1.93489     15.31909     15.74755         0.009362      0.146237     -0.308054
O      13.33557      3.80968      2.64291         0.074340      0.014931     -0.020239
O      13.43807      3.80638     15.78007        -0.269980     -0.598409     -0.161160
O      13.36964     15.32238      2.74248         0.118136      0.284856     -0.525131
O      13.33134     15.31331     15.93550         0.692804     -0.050685     -0.579762
O       1.88851      3.72193      7.14487        -0.055793      0.787229     -0.563409
O       1.76483     15.32918      7.05935         0.370614      0.252088     -0.337408
O      13.31838      3.76626      7.11566         0.214623      0.178162     -0.444828
O      13.39215     15.25818      7.00259        -0.041872      1.257142     -0.020472
O       1.74853      3.82257     11.41422         0.208116     -0.107203     -0.040045
O       1.89772      0.00489     11.48732        -0.363931     -0.221315     -0.270868
O      13.43032      3.94919     11.40371        -0.136546     -1.176134     -0.546764
O      13.23251     15.34571     11.34559         0.247062     -0.462205     -0.294794
O       1.71890      7.74989      2.79115         0.334699     -1.369927     -0.240689
O       1.91843      7.65712     15.73923        -0.159458     -0.478551      0.215703
O      13.43167      7.51081      2.72067        -0.003833      1.294159     -0.203525
O      13.42892      7.63095     15.87850        -0.207884      0.485194     -0.601271
O       1.85451      7.58949      7.00567         0.006119      0.441731      0.012119
O      13.40993      7.65383      7.01804         0.309632     -0.263871     -0.377532
O       1.90976      7.69893     11.51439        -0.068807     -0.719242     -0.436158
O      13.36998      7.63545     11.46340         0.219171      0.235053     -0.186373
O       2.01739     11.46992      2.76298        -0.388375      0.211696      0.362704
O       1.81822     11.53018     15.77549         0.245334     -0.460657     -0.076350
O      13.40200     11.49789      2.74472        -0.478614     -0.674045     -0.328187
O      13.50339     11.50285     15.97135         0.074333      0.158397     -1.101876
O       1.85789     11.47380      7.10650         0.392887      0.146447     -0.286326
O      13.36687     11.49638      7.01071         0.270948     -0.169699     -0.035659
O       1.95106     11.51729     11.39442        -0.586881     -0.550945      0.155544
O      13.27943     11.43846     11.30096         0.381365      0.335015      0.009927
O       5.64225      3.85776      2.65818         0.155611      0.098005      0.038370
O       5.74786      3.80132     15.87895        -0.244835      0.213000     -0.265497
O       5.67165     15.30213      2.53592         0.165953      0.283671      0.443607
O       5.62186     15.33557     15.63049         0.234670      0.370126      0.286162
O       5.77992      3.76938      7.19547        -0.333527      0.353678     -0.773645
O       5.67154      0.00597      7.05792         0.533412     -0.768202     -0.367527
O       5.79781      3.78066     11.30712        -0.227186     -0.210125      0.391240
O       5.79770     15.26375     11.46791        -0.492739      0.848617      0.217672
O       5.96097      7.76401      2.82015        -1.006945     -0.681561     -0.286876
O       5.71920      7.66229     15.80969         0.447124     -0.032061     -0.958531
O       5.62016      7.66650      7.04087         0.296301     -0.793972      0.034707
O       5.78743      7.59383     11.31420        -0.565135      0.691354      0.536771
O       5.62055     11.51118      2.70068        -0.133210     -0.401585     -0.420958
O       5.77856     11.50819     15.84803        -0.492620     -0.478546     -0.412203
O       5.60256     11.49291      7.06498         0.429674      0.246577     -0.283970
O       5.74013     11.49777     11.46402        -0.093346      0.120933     -0.520817
O       9.57727      3.90340      2.72690        -0.280412     -1.117062     -0.055152
O       9.54739      3.69129     15.79261         0.029055      0.997709     -0.288764
O       9.44793     15.32074      2.64294         0.063837      0.424582     -0.016780
O       9.53857     15.28422     15.89813         0.132916      0.642247     -0.785890
O       9.56826      3.78623      6.94395        -0.392784      0.789938      0.115337
O       9.48809     15.31986      7.13440         0.031037     -0.138565     -0.404751
O       9.51672      3.81426     11.40226        -0.042973     -0.323515     -0.467301
O       9.69370     15.28698     11.30358        -0.155002     -0.026124      0.100542
O       9.42451      7.67512      2.63469         0.178431     -0.008492      0.201043
O       9.60421      7.69249     15.62888        -0.173757     -0.802578      0.402634
O       9.56968      7.65216      7.10572        -0.254602     -0.291319     -0.466416
O       9.53015      7.61955     11.46280        -0.666198     -0.123635     -0.439873
O       9.58544     11.51589      2.75112        -0.163714      0.226960     -0.153766
O       9.62143     11.43639     15.86094        -0.331169      0.739890     -0.398554
O       9.61432     11.49340      6.92888        -0.656395     -0.735805      0.421692
O       9.54195     11.40252     11.49333         0.316537      1.939724     -0.140721
