  # total energy = -7866.86094059 
CRSYTAL
PRIMVEC
    15.010000000000000    0.0000000000000000    0.0000000000000000
     0.0000000000000000   15.010000000000000    0.0000000000000000
     0.0000000000000000    0.0000000000000000    16.400000000000000
PRESSURE
18.5833 18.5838 8.53224 -0.055324 0.076879 0.06371
PRIMCOORD
320 1
Pb       3.65208      3.82526      4.03182         0.286042     -0.394492      0.660354
Pb       3.82737      3.67480      0.07576         0.074771     -0.112634     -0.420670
Pb       3.69768     15.00402      4.06241        -0.053808      0.128461      0.502019
Pb       3.60908     14.98202      0.02995         0.877344      0.327182     -0.644560
Pb       0.02818      3.67363      4.05172        -0.391239      0.084212      0.568876
Pb       0.08627      3.79737      0.06262        -0.931767     -0.379638     -0.583048
Pb       0.08514     14.96844      3.97681        -0.539582     -0.057310      0.717823
Pb      14.93795     15.00002      0.01309        -0.227351      0.016838     -0.401166
Pb       3.92509      3.71683      8.23066        -0.659711      0.240781     -0.130984
Pb       3.76907     14.92071      8.25890         0.084375      0.277577     -0.082662
Pb       0.09307      3.69334      8.19534        -0.882101      0.350049     -0.622339
Pb       0.09663      0.05073      8.28960        -0.800270     -0.568397     -0.995387
Pb       3.69287      3.80017     12.32979         0.538450     -0.398772     -0.065961
Pb       3.81592      0.03075     12.26632        -0.391195      0.206317      0.170778
Pb      14.96949      3.63449     12.30162         0.147517      0.278330      0.598578
Pb      14.93584     14.99109     12.34074        -0.068927      0.255658     -0.048812
Pb       3.63824      7.49073      4.01441         0.198859      0.450870      0.497370
Pb       3.70105      7.41256      0.00918         0.310446      0.041369     -0.006744
Pb      14.89847      7.41896      4.08116         0.091498      0.549935      0.320695
Pb       0.02911      7.49293      0.01807        -0.603231     -0.338975     -0.505989
Pb       3.68186      7.44499      8.22057         0.321602      0.232819     -0.162336
Pb      14.93627      7.43139      8.18024         0.068237      0.289475      0.784129
Pb       3.80303      7.56088     12.31030        -0.066026     -0.282374     -0.081955
Pb       0.12595      7.48964     12.37149        -0.565704     -0.165168     -0.114392
Pb       3.68190     11.35102      3.99114        -0.255552     -0.675278      0.549162
Pb       3.71808     11.27023      0.04494         0.215432      0.064687     -0.592049
Pb      14.91582     11.32254      4.10250         0.234273     -0.484902      0.073232
Pb      14.96201     11.14759     16.36715         0.102648      0.659622      0.320493
Pb       3.74172     11.19184      8.22205        -0.146318      0.059963     -0.018132
Pb      14.90120     11.22342      8.33511         0.152262     -0.114816     -0.626238
Pb       3.75665     11.29625     12.33274         0.585002     -0.285964      0.439829
Pb      15.00006     11.21137     12.29303        -0.169432     -0.003476      0.278872
Pb       7.50074      3.61040      4.12338        -0.003718      0.627985      0.437307
Pb       7.46830      3.79548     16.36795        -0.223557     -0.229721      0.055578
Pb       7.43028      0.01025      4.01823         0.331288     -0.467795      1.053030
Pb       7.48626      0.03352      0.07325        -0.203777      0.259738     -0.714650
Pb       7.55384      3.80189      8.29733        -0.188314     -0.079291     -0.358894
Pb       7.53315     14.82309      8.29410        -0.200163      0.392612     -0.324380
Pb       7.56927      3.63964     12.25205        -0.393966      0.456880      0.438034
Pb       7.49928     14.99952     12.33647         0.533696     -0.614651      0.161902
Pb       7.44297      7.51955      4.06328        -0.135690      0.294989      0.078899
Pb       7.45690      7.53871      0.10588         0.251331     -0.341239     -0.040825
Pb       7.45761      7.59885      8.24655         0.113140     -0.423106     -0.570042
Pb       7.50045      7.32766     12.28569        -0.020902      0.848900      0.643767
Pb       7.42909     11.33760      4.06345        -0.310017     -0.709722      0.394892
Pb       7.52400     11.23393      0.09107        -0.048052     -0.101484     -0.902206
Pb       7.45702     11.21162      8.33751         0.028544      0.108282     -0.580096
Pb       7.50377     11.16080     12.43309        -0.045955      0.177438      0.046997
Pb      11.33876      3.70340      4.06586        -0.242320      0.345614      0.133747
Pb      11.13836      3.69895     16.38217         0.873540      0.572792      0.126086
Pb      11.22945      0.04250      4.10321         0.065568     -0.494730      0.160068
Pb      11.09950     14.91990      0.04076         0.491207      0.631076      0.093032
Pb      11.20618      3.76564      8.15153         0.409141      0.059331      0.502558
Pb      11.27912     14.98198      8.23617         0.123319     -0.177856     -0.233879
Pb      11.31794      3.72627     12.36616         0.097380      0.047559     -0.439549
Pb      11.23995     14.98013     12.23623        -0.152535      0.285831      0.180255
Pb      11.05218      7.42117      4.09165         0.834229      0.573279      0.136705
Pb      11.20713      7.52108     16.36675         0.340214     -0.171749      0.360064
Pb      11.16658      7.51272      8.25761         0.095902     -0.067776      0.175927
Pb      11.28926      7.52172     12.35288         0.627206     -0.248114      0.234719
Pb      11.22671     11.30607      4.16492         0.524114     -0.673206      0.271982
Pb      11.20884     11.29644      0.09914         0.103588     -0.563412     -0.763502
Pb      11.15767     11.15817      8.19824         0.223732      0.114162      0.227241
Pb      11.26600     11.28221     12.33101        -0.302285     -0.062963     -0.136353
Ti       1.92788      1.85060      2.00058        -1.129541      0.661327      0.363222
Ti       1.86391      1.91144     14.46631        -0.060322     -0.325208     -0.475072
Ti       1.85366     13.10491      2.03514        -0.570638     -0.768268      0.164445
Ti       1.86095     13.12815     14.46668         0.232813      0.444781     -0.400808
Ti      13.10400      1.86161      2.09098         0.730738      0.136234     -0.756877
Ti      13.09922      1.91639     14.45602         0.854186      0.460070     -0.117006
Ti      13.03150     13.07428      2.05655         0.404470      0.371887     -0.094875
Ti      13.09472     13.15046     14.43753         0.489065      0.541658     -0.170812
Ti       1.89590      1.89632      6.19173        -0.703293     -0.932381     -0.251989
Ti       1.80724     13.10583      6.27289        -1.142636      0.462763     -0.586665
Ti      13.08505      1.87576      6.17807         0.431092     -0.647797      0.540096
Ti      13.04177     13.06309      6.25727         0.398987      1.721343      0.020132
Ti       1.91413      1.84590     10.23244         0.047257     -0.212744      0.364618
Ti       1.87925     13.07337     10.35846        -0.164957      0.229546     -1.085437
Ti      13.15182      1.89829     10.28340        -1.490660     -0.572025      0.098304
Ti      13.14979     13.10078     10.27647        -0.543983      0.308246     -0.514901
Ti       1.81009      5.60071      2.10255         0.929082      0.192725      0.574091
Ti       1.92313      5.60956     14.47526        -1.048578     -0.285627     -0.941067
Ti      13.14570      5.63572      2.03512        -0.147661     -0.836687     -0.755931
Ti      13.12479      5.61423     14.51724         0.437955      0.530361     -1.175375
Ti       1.81841      5.65054      6.27084        -0.382716     -0.578876     -0.511093
Ti      13.01269      5.65430      6.20931         1.169644     -1.411912      1.142957
Ti       1.90983      5.55070     10.32268         0.126485      1.260463     -0.698862
Ti      13.20635      5.62616     10.32996        -2.035011     -0.003860      0.378836
Ti       1.81214      9.35178      2.02817        -0.087984      0.834485      1.067975
Ti       1.91819      9.42124     14.38676        -0.136834     -1.128623      0.365031
Ti      13.13913      9.34429      2.11579        -0.994745      0.345645      0.471260
Ti      13.16545      9.43576     14.52562        -1.534649     -1.822260     -1.350210
Ti       1.82661      9.36067      6.27097         0.495075      0.897196     -0.326594
Ti      13.12159      9.31579      6.23781        -0.238410      0.763980     -1.638581
Ti       1.86701      9.36746     10.29565         0.190909     -1.479292      0.491365
Ti      13.10282      9.35059     10.43929         0.216177      0.131564     -0.852700
Ti       5.65402      1.86463      2.17106        -1.038456      1.016170     -1.572051
Ti       5.60561      1.86624     14.40003         0.443165     -0.472554     -0.229741
Ti       5.63043     13.16067      1.99270        -1.133572      0.489014      0.406313
Ti       5.63427     13.12580     14.45182         0.037351     -0.484616     -0.769327
Ti       5.61574      1.85015      6.26503        -0.063909     -0.855676      0.096875
Ti       5.52882     13.12196      6.23513         0.535372      0.477588      1.004230
Ti       5.62888      1.82633     10.31538        -0.245497      1.189881     -0.677367
Ti       5.65162     13.06220     10.40222         0.542062     -0.370870     -0.528479
Ti       5.62480      5.66756      2.15419         0.016241     -0.243868     -0.296681
Ti       5.62420      5.60475     14.40433         0.641471     -0.492028      0.209031
Ti       5.59960      5.62980      6.17409        -0.131762      0.777615      0.558357
Ti       5.69694      5.65196     10.28688        -0.444784     -1.527563      0.083928
Ti       5.56938      9.46149      2.07000         0.602581     -0.697146      1.154295
Ti       5.63143      9.29899     14.54941         0.327932      1.080458     -1.813818
Ti       5.60694      9.42867      6.11820        -0.028319     -0.840412     -0.767472
Ti       5.61166      9.35854     10.38005         0.488073      0.179429      1.793374
Ti       9.34720      1.90742      2.10794         0.756009     -1.178926     -0.219492
Ti       9.37557      1.88129     14.47581        -0.404901     -0.550282     -0.282562
Ti       9.32150     13.05572      2.15376         0.273670      1.600668      0.203241
Ti       9.35133     13.10671     14.51712         0.342295     -0.242559     -2.161539
Ti       9.32859      1.83423      6.27937        -0.368055      0.138411     -0.103798
Ti       9.25037     13.05652      6.17777         0.622763      0.791511      0.303796
Ti       9.28672      1.84596     10.29260         2.125099     -0.557440      0.484336
Ti       9.41392     13.06659     10.28307        -0.643960      0.003418      0.606715
Ti       9.37336      5.64187      2.11048         0.227439     -0.265424     -0.580470
Ti       9.36701      5.66180     14.42930         0.359757     -1.047305     -0.538743
Ti       9.28551      5.60810      6.19105         0.368381      0.353288     -0.151709
Ti       9.48996      5.63107     10.42708        -0.039237     -0.489653     -1.093521
Ti       9.34317      9.43239      2.08816        -0.041116     -1.766613      0.415744
Ti       9.35555      9.33572     14.40056         0.590581      0.604681      0.644243
Ti       9.35180      9.37010      6.17800        -0.354356      0.006613      0.490586
Ti       9.35239      9.33330     10.40901         0.396687      0.606712     -0.817692
O       1.81463      1.78591      0.19794        -0.057523      0.237874      0.991137
O       2.02935      1.91810     12.65574        -0.458867     -0.373777     -0.501103
O       1.95703     13.11843      0.21879        -0.577242     -0.261522      0.901800
O       1.90039     13.06657     12.63919        -0.061271      0.334013     -0.603539
O      13.22248      1.86034      0.23753        -0.150070     -0.192224      1.102574
O      13.21137      1.88780     12.62071        -0.338647      0.067645     -0.373501
O      13.08896     13.10270      0.22525        -0.259620     -0.006100      0.144122
O      13.13622     13.14766     12.60078         0.025463     -0.172555      0.228831
O       2.02133      1.88210      4.35495        -0.422618     -0.326069     -0.044828
O       1.96382     13.10001      4.30425        -0.564234      0.072783      0.785195
O      13.09882      1.85364      4.31387        -0.253098     -0.229939      0.099436
O      13.03193     13.20201      4.42477         0.111146     -0.310703     -0.340869
O       1.86750      1.92856      8.40336        -0.043680     -0.396731      0.995643
O       1.80705     13.17108      8.49087         0.267442     -0.124856      0.465906
O      13.09824      1.87419      8.49332         0.090661      0.104191      0.470852
O      13.14237     13.11447      8.44844         0.003176     -0.438728      0.433664
O       1.84990      5.57078      0.31382         0.371578      0.414676     -0.325967
O       1.87524      5.50068     12.62781         0.056879      0.480480      0.133835
O      13.24745      5.53735      0.23270        -0.248090      0.209391      0.869774
O      12.98715      5.58203     12.65139         0.620215      0.445234     -0.104291
O       1.91266      5.62714      4.39152        -0.548466      0.288194      0.569350
O      13.18639      5.50312      4.46012        -0.210312      0.726856     -1.370602
O       1.90523      5.66975      8.46396        -0.232786     -0.570568      0.879537
O      13.02491      5.69321      8.55766         0.109311     -0.430952     -0.527741
O       1.75856      9.31722      0.24861         0.333541      0.376776     -0.484507
O       1.83024      9.35638     12.59114         0.376213     -0.113678     -0.181488
O      13.20671      9.37448      0.28542         0.039918      0.380765     -0.057637
O      13.10593      9.37290     12.63007        -0.062684     -0.097850      0.393589
O       1.80406      9.43648      4.49257         0.197022     -0.239657     -0.634643
O      13.08581      9.29906      4.31152         0.093561      0.041624      1.349766
O       1.91330      9.31971      8.54038        -0.086387      0.253481     -1.191198
O      13.10346      9.46133      8.59989         0.182831      0.007047     -0.636356
O       5.71646      1.85123      0.30938        -0.168930      0.198665      0.729740
O       5.71214      1.90607     12.55631        -0.608179     -0.639012      0.455026
O       5.69137     13.11652      0.23844        -0.198103     -0.024267     -0.850203
O       5.65525     13.08045     12.56883        -0.276475      0.658381      0.589163
O       5.50097      1.80111      4.40324         0.570722     -0.091340      0.071600
O       5.47387     13.16688      4.45268         0.326028      0.094946     -0.874296
O       5.59321      2.01727      8.48401         0.051553     -0.582228      0.654791
O       5.60367     12.96861      8.57075        -0.056100      0.204510      0.085434
O       5.38380      5.44153      0.36485         0.903641      0.800641      0.060884
O       5.68588      5.64818     12.62804        -0.067492     -0.038595     -0.612263
O       5.67117      5.67539      4.37001        -0.063048     -0.053103     -0.244832
O       5.66195      5.70077      8.47257        -0.314979     -0.625479      0.066824
O       5.75895      9.46320      0.27233        -0.617039     -0.069203     -0.321999
O       5.66996      9.29363     12.69296        -0.415927     -0.395041      0.360564
O       5.71026      9.42976      4.25603        -0.604329      0.043949      1.474983
O       5.64538      9.38152      8.64495         0.167578      0.231205     -1.702499
O       9.33733      1.84172      0.29942        -0.152183      0.160715      0.282141
O       9.38653      1.83811     12.69531        -0.278028     -0.074800     -0.760880
O       9.37397     13.04564      0.32820         0.014423      0.148448     -0.245360
O       9.47371     13.14372     12.63965        -0.079097     -0.223291      0.732826
O       9.45461      1.83321      4.45253        -0.780731      0.287199     -0.446459
O       9.28694     13.06624      4.32259        -0.056748     -0.050372      0.489196
O       9.33509      1.82221      8.52120        -0.083812      0.079566     -0.767102
O       9.36736     13.09363      8.49014        -0.436583     -0.079473     -0.661123
O       9.37869      5.70173      0.29229        -0.000259     -0.446368      0.464279
O       9.38608      5.62953     12.53324         0.175334     -0.162509      1.477143
O       9.39482      5.58489      4.35349        -0.324213     -0.061254      0.058422
O       9.51239      5.71034      8.57020        -0.586064     -0.255578     -0.406901
O       9.24039      9.28965      0.30349         0.218244      0.290440     -0.296480
O       9.41839      9.40138     12.62783         0.402415     -0.298458     -0.649909
O       9.45688      9.51975      4.40400        -0.521912     -0.485903     -0.849384
O       9.26845      9.32326      8.53307         0.316556      0.152872      0.345865
O       3.75559      1.99599      2.20512        -0.142336     -0.038444      0.411895
O       3.74926      1.83203     14.75178         0.197613     -0.479274      0.090513
O       3.74116     12.87916      2.20535        -0.302972      1.072942      0.188720
O       3.76332     13.03151     14.79978        -0.527590      0.915272     -0.266842
O       0.03071      1.89290      2.47546        -0.526630     -1.471652     -0.576326
O       0.00834      2.04773     14.60547        -0.066772     -0.207808      0.239415
O      14.90535     13.16907      2.27481         1.626372      0.299678      0.319432
O       0.02517     12.92769     14.78861        -0.776410      0.888876     -0.449454
O       3.68903      1.73873      6.54781         1.295733      0.108206      0.051891
O       3.65750     13.28818      6.55429         0.696899     -0.709310     -0.165380
O      14.89450      1.93646      6.52522         1.790148     -0.427973     -0.264237
O      14.90369     13.19987      6.44502         1.163824     -0.268234     -0.070028
O       3.79440      1.89893     10.58301        -0.829641      0.325317      0.142162
O       3.79117     12.84679     10.53801        -1.180654      0.297160      0.343853
O       0.03728      1.78190     10.61884         0.549027     -0.350280     -0.206166
O       0.01953     13.32657     10.50503         0.143778     -0.629782      0.604910
O       3.71266      5.61664      2.48637         0.191966     -0.159185     -0.366983
O       3.81761      5.68097     14.65768        -1.959158      0.084312      0.247422
O       0.00844      5.62541      2.40658         0.236841      0.632437      0.291387
O      14.98412      5.55198     14.70092         1.262524     -0.216565     -0.062308
O       3.67907      5.62530      6.50647         1.113155      0.207463     -0.176449
O      14.91021      5.67764      6.61273         1.336898     -0.490450     -0.352652
O       3.78636      5.45844     10.63441         0.069394      0.117616     -0.265940
O      14.98041      5.78550     10.56209         2.252088     -0.283111      0.325881
O       3.70448      9.43019      2.40997         0.238541      0.389025     -0.387845
O       3.75778      9.12843     14.71958        -0.890611      0.629818      0.138615
O      14.95998      9.33815      2.45318         0.841688     -0.140181     -0.158551
O      15.00303      9.38358     14.56320         0.420145      0.133263      0.587334
O       3.77973      9.30419      6.56279        -0.569578      0.503933     -0.192969
O      14.95917      9.38212      6.51093         0.097149     -0.069349      0.293376
O       3.79128      9.52679     10.67247        -0.725468     -0.086384     -0.015023
O       0.01977      9.20651     10.60824        -0.374514      0.017637      0.336347
O       7.49273      1.69577      2.42268         0.704722      0.478666      0.294880
O       7.49457      1.85974     14.72726        -0.141834      0.264416      0.038293
O       7.40864     13.27835      2.35940         1.236408      0.033315      0.472058
O       7.53333     13.05024     14.69952        -1.254985     -0.204273      0.161679
O       7.41435      2.00077      6.63676         1.164277     -0.502783     -0.747825
O       7.41182     13.03059      6.57429         0.572005     -0.038279     -0.257457
O       7.45775      1.69932     10.64546         0.899705     -0.055889     -0.006613
O       7.54462     13.23478     10.54891        -0.666529     -0.233266      0.234670
O       7.51794      5.89046      2.19209        -0.815940     -1.014009      0.514587
O       7.46481      5.59162     14.79555         0.699529     -0.313373     -0.079369
O       7.45630      5.68086      6.50036        -0.042049     -0.349223      0.104577
O       7.57450      5.72889     10.58084        -0.714840      0.111909     -0.120880
O       7.49607      9.26007      2.44816        -0.513353      0.147244     -0.313198
O       7.51068      9.46002     14.67705        -0.005069     -0.262662      0.211641
O       7.44068      9.28420      6.52126         0.683017      0.902241     -0.104066
O       7.54948      9.22557     10.80239        -0.834954     -0.183321     -0.700645
O      11.22232      1.96547      2.27430         0.715291      0.242861      0.373280
O      11.25469      1.75187     14.73767        -0.508727      0.181923      0.243882
O      11.14371     12.87460      2.43129         0.351319      0.073607     -0.510757
O      11.22935     13.20783     14.77231         1.127390     -0.178198     -0.096080
O      11.20638      1.91128      6.46648        -0.643259     -0.000398      0.236586
O      11.13547     13.14439      6.53014        -0.041218     -0.268801     -0.259691
O      11.21397      2.06750     10.61412         0.661387     -1.011281     -0.131763
O      11.26227     13.01794     10.38607         0.819453     -0.100716      0.880834
O      11.35035      5.52849      2.27453        -1.980057     -0.155553      0.666941
O      11.24479      5.58617     14.81408        -1.362511      0.575691     -0.164849
O      11.19771      5.51443      6.40821        -0.450349      0.544385      0.142569
O      11.29523      5.36832     10.56611         0.128547      0.141701      0.541262
O      11.18953      9.42271      2.27724         0.741488      0.401549      0.161644
O      11.24999      9.27087     14.82118        -0.047952      0.390132     -0.330053
O      11.23517      9.37608      6.43856        -0.008994      0.101009      0.505175
O      11.24397      9.46709     10.50898         0.101924      0.339549      0.688910
O       1.74328      3.70095      2.42691         0.839233      0.859790     -0.541900
O       1.93513      3.75046     14.86501         0.423581      0.416011     -0.419467
O       1.92488     15.00083      2.27057         0.147639     -0.544578      0.277503
O       1.78828     15.00397     14.81328         0.033560     -0.448798     -0.707397
O      13.29672      3.75926      2.33678        -0.586130     -1.142265      0.269073
O      12.99306      3.79444     14.69123         0.027451     -1.766137      0.228914
O      12.85728     14.88644      2.27168         0.501768      2.258426      0.342360
O      13.26725      0.07026     14.51049         0.356605     -2.075507      0.942727
O       1.86557      3.72661      6.44832        -0.213925      0.971325      0.140549
O       1.77970      0.00065      6.38017        -0.402752     -0.041791      0.324346
O      13.12161      3.74521      6.55480        -0.296499      0.251601     -0.079533
O      13.00830     15.00331      6.63327         0.136213      0.537206     -0.659262
O       1.89705      3.69871     10.57439        -0.624911     -0.035686     -0.064820
O       2.07035     14.95481     10.49297         0.112676      0.599374      0.512852
O      13.26949      3.70602     10.67978         0.226556      0.631406     -0.429933
O      13.05631     14.95166     10.58813        -0.158181      1.307435      0.140373
O       1.97188      7.54515      2.31052        -0.557842     -1.490568      0.368222
O       1.74399      7.45218     14.73340         0.355945      0.486581     -0.167815
O      13.11499      7.46807      2.29298         0.015157      0.544354      0.473947
O      13.13632      7.46550     14.83974         0.187057      1.199153     -0.295071
O       1.81089      7.52996      6.55134         0.086171     -0.910651     -0.234282
O      13.14432      7.50597      6.61119        -0.633664     -0.294577     -0.484832
O       2.10826      7.47309     10.49934        -0.229114     -0.557513      0.860563
O      12.96594      7.51189     10.56241        -0.120849     -0.722849      0.571795
O       1.79890     11.20373      2.34919        -0.350341      1.046570     -0.069583
O       1.91004     11.22698     14.70284         0.349037     -0.486591      0.176406
O      13.15849     11.27501      2.38871        -0.017248     -1.519442      0.221581
O      13.08553     11.27293     14.67159        -0.377731     -0.224756      0.251707
O       1.73197     11.26073      6.63327         0.770643      0.189946     -0.319436
O      13.10241     11.22425      6.41163        -0.131493     -0.259162      0.263187
O       1.70460     11.17186     10.50699        -0.089481      1.877265      0.486946
O      13.21958     11.26335     10.68746         0.487110      0.082236     -0.036375
O       5.76004      3.77423      2.43732         0.097440     -0.170856      0.203752
O       5.51434      3.67700     14.71300         0.446021      1.311131      0.157870
O       5.54486      0.04406      2.34652        -0.650170     -1.447345      0.329952
O       5.63527     14.98180     14.66507        -0.046761      0.087643      0.090662
O       5.57753      3.68980      6.46864        -0.413744      1.882193     -0.204248
O       5.78183     14.95512      6.71257        -0.907845      0.491465     -0.598251
O       5.82086      3.73894     10.61923        -0.232559      0.199920     -0.324660
O       5.52199     14.96042     10.48453        -0.242994     -0.184533      0.399220
O       5.58546      7.59324      2.25294        -0.649192     -1.221423      0.243399
O       5.67312      7.43943     14.81914         0.183225      0.135815      0.294555
O       5.69644      7.55075      6.47722        -0.828966     -0.915674     -0.193462
O       5.50091      7.44687     10.60398         0.181021      0.898143      0.265126
O       5.69525     11.33075      2.30198         0.429014     -0.719259      0.390677
O       5.49303     11.23651     14.56631         0.268186     -0.480227      0.706353
O       5.56678     11.28257      6.55075        -0.222347     -0.915151     -0.219572
O       5.82392     11.18694     10.80474        -0.062971      0.256525     -0.672020
O       9.26840      3.72524      2.47867        -0.276985      0.525360     -0.407178
O       9.36916      3.76900     14.80690        -0.013763     -0.486493     -0.345528
O       9.52390     14.95919      2.34932        -0.445847      0.438583      0.058012
O       9.27016     14.96897     14.77733         0.253939      0.564816      0.231016
O       9.23587      3.78445      6.55827         0.430907     -0.631976     -0.050833
O       9.19908     14.98753      6.45319         0.157293     -0.099144      0.107382
O       9.27577      3.68706     10.59438        -0.739616      0.408852     -0.056330
O       9.48682     14.91812     10.65963        -0.056137      1.576468     -0.189956
O       9.42100      7.46720      2.45469         0.459785      0.851079      0.120318
O       9.32415      7.45263     14.69586        -0.049111      0.724025     -0.008685
O       9.40393      7.51113      6.41746         0.004012     -0.503269      0.006585
O       9.61592      7.49483     10.63057        -0.152741     -0.205371      0.135406
O       9.04066     11.22992      2.32078         0.403295      0.305239     -0.008697
O       9.44764     11.19178     14.72891         0.280028      0.571851      0.299977
O       9.29006     11.22773      6.53309         0.121911     -0.060479      0.043425
O       9.37960     11.21854     10.64949        -0.571451      0.045255      0.003052
