  # total energy = -7881.50219993 
CRSYTAL
PRIMVEC
    15.6000000000000000    0.0000000000000000    0.0000000000000000
     0.0000000000000000   15.6000000000000000    0.0000000000000000
     0.0000000000000000    0.0000000000000000    17.640000000000000
PRESSURE
-3.00936 -2.90124 5.03751 0.086172 -0.243459 -0.02614
PRIMCOORD
320 1
Pb       3.78099      3.76406      4.37772         0.336978      0.392693     -0.126362
Pb       3.88677      3.91493     17.57726        -0.048125     -0.251824      0.130038
Pb       3.88262     15.56335      4.30963         0.072929     -0.399966      0.119826
Pb       3.82338     15.55063     17.52137         0.134705      0.466061      0.317340
Pb       0.04543      3.87901      4.38704        -0.406824     -0.099207     -0.494436
Pb      15.58814      3.93993     17.62406        -0.108821      0.026030     -0.150582
Pb      15.54045     15.53719      4.29834         0.021025      0.189453      0.177896
Pb      15.49085      0.03727     17.53349         0.140468     -0.366819      0.623429
Pb       3.83594      3.93772      8.77849        -0.154016     -0.244042     -0.210507
Pb       3.83068      0.04681      8.70875         0.109631     -0.309862      0.278461
Pb      15.57303      3.91108      8.68059        -0.135158     -0.028928      0.183461
Pb       0.01247     15.59501      8.74753        -0.032493     -0.004706     -0.112803
Pb       3.91216      3.66726     13.21911        -0.291310      0.943110     -0.184897
Pb       3.81676     15.53480     13.16669         0.228731      0.065617     -0.686212
Pb      15.57824      3.77768     13.15547         0.225927      0.527404      0.140293
Pb      15.58879      0.10933     13.13017        -0.039328     -0.504384     -0.142671
Pb       3.88312      7.82879      4.39545        -0.058727     -0.378513     -0.260941
Pb       3.95662      7.81333     17.57114        -0.599814     -0.118588      0.337674
Pb       0.02075      7.97465      4.40708        -0.126153     -0.989022     -0.316503
Pb       0.03230      7.85080     17.53101        -0.212666     -0.232754      0.061674
Pb       3.89854      7.89313      8.82674         0.446259     -0.469450     -0.252162
Pb      15.57029      7.80689      8.82025        -0.260154     -0.117443      0.009410
Pb       3.89378      7.80099     13.11524         0.462395     -0.562618      0.110191
Pb       0.05539      7.88395     13.16244        -0.404597     -0.374013      0.555370
Pb       3.90699     11.63301      4.35644        -0.427528      0.578201      0.180923
Pb       3.93415     11.63475     17.55022        -0.374010     -0.006718      0.234351
Pb      15.50206     11.52582      4.25920         0.824856      1.317970      1.185364
Pb      15.55415     11.62954     17.49431        -0.020476      0.225438      0.566809
Pb       3.84218     11.57371      8.72172         0.013059      0.834050      0.161640
Pb      15.53069     11.74889      8.79781         0.186436     -0.088142     -0.289295
Pb       3.85434     11.74246     13.14870        -0.115757      0.066542     -0.292266
Pb      15.52456     11.62347     13.15707        -0.084449      0.297089     -0.217513
Pb       7.86333      3.70905      4.46521        -0.380277      0.650927     -0.343585
Pb       7.78761      3.83164     17.54419        -0.064168      0.387587      0.242457
Pb       7.71763     15.48725      4.30053         0.185945      0.228095      0.604352
Pb       7.76892     15.57634     17.62969        -0.125692      0.146495     -0.490652
Pb       7.71717      3.90209      8.72987        -0.073805     -0.087333      0.141900
Pb       7.81355     15.58458      8.68033         0.112770     -0.062200      0.202948
Pb       8.00010      3.94578     13.08132        -0.458488      0.040964      0.818084
Pb       7.79310      0.03081     13.22427        -0.169755     -0.194987     -0.522228
Pb       7.92013      7.77565      4.36633        -0.511565     -0.341319     -0.615530
Pb       7.81019      7.90217     17.62126        -0.077315     -0.858812      0.013885
Pb       7.76178      7.81811      8.73238        -0.688006     -0.023910     -0.041687
Pb       7.77634      7.91710     13.05895        -0.327508     -0.731124      1.264080
Pb       7.84812     11.71249      4.38337        -0.099364     -0.038792      0.209176
Pb       7.78133     11.70071      0.01528         0.021644      0.100632     -0.337418
Pb       7.83648     11.70133      8.92074        -0.046853      0.095784     -0.718680
Pb       7.79359     11.75499     13.18251         0.028569     -0.027985     -0.107991
Pb      11.64728      3.88078      4.42454         0.339735      0.042672     -0.509235
Pb      11.86312      3.83905     17.58051        -1.169185      0.139673      0.339452
Pb      11.53912     15.45189      4.39779         0.585609     -0.035464      0.094415
Pb      11.51186     15.49964     17.59995         0.644262      0.387529      0.081326
Pb      11.55650      3.90019      8.75481         0.425067      0.068898      0.276995
Pb      11.79728      0.06106      8.69394        -0.528452     -0.631382     -0.090022
Pb      11.78559      3.90639     13.19209        -0.361954      0.453522     -0.158242
Pb      11.69013     15.57011     13.15307         0.038444     -0.198825      0.269092
Pb      11.75599      7.71697      4.26554         0.027860     -0.042913      0.057352
Pb      11.73268      7.73187     17.50569        -0.564674     -0.266656      0.194699
Pb      11.58936      7.78928      8.68398         0.529536      0.083513      0.436524
Pb      11.75163      7.74072     13.20091        -0.480472     -0.431551      0.642462
Pb      11.69806     11.66516      4.23492        -0.296112     -0.029243      0.901700
Pb      11.80990     11.56154     17.43928        -0.346811      0.708764      1.079813
Pb      11.72480     11.60548      8.59264        -0.138992      0.581001      0.881540
Pb      11.61744     11.61583     13.00553         0.465502      0.478399      0.820162
Ti       1.94582      1.95270      2.37794        -0.513845     -0.665753      1.745800
Ti       1.84230      2.00385     15.64039         0.484936      0.061699      0.963736
Ti       1.90245     13.65977      2.33064         0.162328     -0.726052      2.532671
Ti       1.94600     13.65818     15.61512        -0.346222     -0.314864      2.214258
Ti      13.61310      1.92033      2.41887         0.544478     -0.600415      0.555265
Ti      13.53406      1.88736     15.71638        -0.362214      0.344744      1.802850
Ti      13.66687     13.57164      2.37746         0.047568      0.477911      0.480250
Ti      13.64595     13.64647     15.56377        -0.420279     -0.518627      0.806058
Ti       1.88161      1.97179      6.79641        -0.028004     -0.063409      1.722749
Ti       1.90610     13.68812      6.82022         0.538324     -0.482371      1.980415
Ti      13.60718      1.94202      6.77994         0.232581     -0.081560      1.921649
Ti      13.66774     13.62828      6.72175        -0.618607      0.290231      1.075539
Ti       1.98259      1.93256     11.13543        -0.737485     -0.187492      0.445632
Ti       1.87133     13.59170     11.14419         0.597537      0.957271      0.596620
Ti      13.57558      1.93283     11.17883         0.310242      0.131315      2.663000
Ti      13.60496     13.63014     11.18108         0.246975      0.055761      2.543328
Ti       1.89976      5.90735      2.27044        -0.302922     -0.173631      1.525100
Ti       1.87246      5.88151     15.60050         0.060540     -0.206683      1.417710
Ti      13.64113      5.70984      2.27043        -0.273348      0.469472      1.382668
Ti      13.56026      5.80264     15.64103         0.227112      0.411146      0.206596
Ti       1.89575      5.96014      6.85293         0.171241     -0.844677      0.658263
Ti      13.58531      5.85872      6.88828         0.343485     -0.208520      2.322641
Ti       1.94216      5.81323     11.21284         0.439459     -0.639943      2.491858
Ti      13.70160      5.88540     11.29768        -0.471388     -0.827084     -0.015139
Ti       1.98582      9.74107      2.35704        -0.368744      0.333325      2.468920
Ti       1.92001      9.78180     15.57281        -0.119319     -0.392482      1.342660
Ti      13.60193      9.65594      2.43158         0.155492     -0.049688      0.115533
Ti      13.58552      9.70508     15.60330         0.535120     -0.272578      0.546056
Ti       1.91082      9.72871      6.85543         0.277016      0.698497      0.999280
Ti      13.66576      9.72114      6.81391        -0.460208     -0.313818     -0.734860
Ti       1.94543      9.68628     11.17353        -0.513532      0.971658      1.477827
Ti      13.59648      9.67776     11.20294         0.347649      0.430447      0.928258
Ti       5.86473      1.94032      2.45483         0.049832     -0.115228      2.662693
Ti       5.77720      1.99561     15.54027        -0.110462     -0.218662      1.086776
Ti       5.87909     13.54263      2.38506        -0.860767      0.756484      1.861640
Ti       5.83093     13.69637     15.63792         0.254725      0.060215      2.548401
Ti       5.81096      1.88167      6.86918        -0.185391      0.035244      1.032038
Ti       5.86682     13.60298      6.86967        -0.438218      0.177982      0.912321
Ti       5.90218      1.99102     11.22504        -0.380360     -0.933864      1.330053
Ti       5.81702     13.67353     11.20546        -0.131552      0.320892      2.329467
Ti       5.74295      5.74923      2.46077         0.871588      0.524457     -0.064298
Ti       5.78555      5.84918     15.71086         0.646286      0.285365      1.057022
Ti       5.70726      5.78182      6.77604        -0.031878      0.736179      2.479921
Ti       5.88091      5.80253     11.17244        -1.520804      0.753526     -0.049485
Ti       5.83313      9.73056      2.47791         0.244303     -0.686382      1.249034
Ti       5.85522      9.77568     15.66321        -0.654654     -0.467567      1.086902
Ti       5.86745      9.81276      6.77423        -0.388795     -0.619187      0.988683
Ti       5.78616      9.81144     11.21644         0.372401     -0.965484      2.217218
Ti       9.78890      1.93770      2.46163        -0.112821     -0.348793      1.887531
Ti       9.64755      1.91153     15.54509         0.275837      0.618070      2.914846
Ti       9.74957     13.62417      2.30658         0.185985     -0.429753      2.519163
Ti       9.75678     13.62245     15.64178        -0.230055      0.073054      0.651303
Ti       9.72341      2.01115      6.85633        -0.082007     -1.269919      1.144620
Ti       9.77024     13.60980      6.85806        -0.136500      0.595166      0.396929
Ti       9.75205      1.82544     11.18124        -0.179679      1.087846      1.013206
Ti       9.70834     13.59426     11.15141        -0.186176      0.341519      1.042381
Ti       9.66927      5.75301      2.39266         0.079685      0.294960      1.582102
Ti       9.63109      5.79920     15.64416         0.376944      0.248327     -1.150463
Ti       9.62495      5.91464      6.84505         0.315424     -0.771279      0.656288
Ti       9.66867      5.90121     11.18235         1.010826     -0.767369      0.791417
Ti       9.68778      9.71998      2.41173         0.411855      0.206641      1.101491
Ti       9.68358      9.75729     15.66574         0.183701     -0.684363      2.517232
Ti       9.72644      9.76802      6.77392        -0.181227      0.382394      2.731332
Ti       9.72696      9.67916     11.22282        -0.107082      0.499472      0.742582
O       2.03630      1.95945      0.69513        -0.273573     -0.170919     -1.756244
O       1.76372      2.04705     13.92542         0.199263     -0.199270     -0.764063
O       1.86957     13.70961      0.66009         0.079240     -0.042996     -2.130625
O       2.08904     13.62256     13.94248        -0.129338     -0.043202     -1.525619
O      13.54141      2.04132      0.71196         0.220981     -0.039176     -1.624373
O      13.57607      1.79742     14.05655        -0.084454     -0.028805     -2.519621
O      13.70831     13.37619      0.67477        -0.140125      0.166278     -0.709972
O      13.60014     13.62805     13.84970         0.043041      0.116093     -0.617413
O       1.75314      1.81975      5.12047         0.411407      0.466536     -1.721141
O       1.99079     13.65057      5.16858        -0.058348     -0.020465     -2.214941
O      13.79612      1.92387      5.13464        -0.472827      0.268327     -2.960521
O      13.63371     13.73714      5.02906        -0.176687     -0.446690     -1.206567
O       1.99663      1.84282      9.39500        -0.420665      0.367104     -0.365900
O       1.81350     13.72956      9.43081        -0.069028     -0.037634     -0.998316
O      13.47815      1.88256      9.51917         0.169727      0.028116     -2.350575
O      13.68484     13.61742      9.51228         0.048753      0.106745     -1.652571
O       1.88475      5.92111      0.56856        -0.153503     -0.246706     -0.923775
O       1.94582      5.71823     13.91269         0.101736      0.324299     -0.968630
O      13.49769      5.68669      0.55240         0.440773      0.155414     -1.020911
O      13.45507      5.86384     13.92495         0.291071     -0.186120     -1.245149
O       1.88650      6.01823      5.15622         0.058660     -0.161811     -1.555291
O      13.64601      5.77213      5.24669        -0.128587      0.199455     -2.815586
O       1.92562      5.87413      9.54396        -0.124866     -0.076064     -1.999350
O      13.72839      5.90389      9.56878        -0.121206      0.028624     -0.434695
O       1.86362      9.74478      0.70477         0.013481      0.004714     -2.745772
O       1.84121      9.80143     13.86800         0.164212      0.080171     -1.579715
O      13.59118      9.76513      0.70745         0.109932      0.008728     -0.812986
O      13.61526      9.73669     13.90217         0.084791     -0.064590     -1.315038
O       1.95500      9.69014      5.15631        -0.053373     -0.221120     -1.639371
O      13.58238      9.60047      5.04517         0.514111      0.171333      0.128963
O       1.97614      9.64249      9.48896        -0.096081      0.037453     -1.757378
O      13.62605      9.69266      9.49864        -0.105610     -0.165220     -0.794715
O       5.79910      2.03521      0.81472         0.145297     -0.111335     -3.093057
O       5.71685      1.99841     13.83166         0.182507     -0.263364     -1.335925
O       5.93742     13.58212      0.69855        -0.027724     -0.064142     -1.820356
O       5.76530     13.73829     13.98183         0.010145     -0.198400     -2.625469
O       5.78329      1.78792      5.18969         0.234954      0.309498     -2.040989
O       5.88197     13.61398      5.17290         0.039035      0.062342     -1.607246
O       5.91093      1.90630      9.54912        -0.124547      0.278775     -2.025406
O       5.84088     13.61075      9.56380         0.225440     -0.171776     -3.384379
O       5.86417      5.69491      0.74108        -0.138637      0.068925     -0.734130
O       5.77444      5.93658     14.04311        -0.134124      0.028430     -1.691386
O       5.52592      5.75323      5.11931         0.243855      0.161959     -2.009914
O       5.81794      5.99961      9.43305         0.243266     -0.658361     -0.160565
O       5.89216      9.78362      0.78711        -0.193064      0.206672     -1.746047
O       5.80475      9.65318     13.99061         0.027963      0.133880     -2.143044
O       5.81617      9.87977      5.07106         0.009857     -0.267824     -1.598591
O       5.78417      9.72041      9.55321         0.121683      0.276882     -2.265289
O       9.64189      1.91772      0.80661        -0.039094     -0.212349     -2.384050
O       9.73541      1.86623     13.88773        -0.043167     -0.063103     -2.845640
O       9.65876     13.75084      0.62620        -0.023559     -0.041102     -1.582731
O       9.69707     13.64229     13.93131        -0.005055     -0.039636     -1.009877
O       9.79486      2.05638      5.16668         0.032372      0.082637     -2.081725
O       9.78227     13.59340      5.14536         0.055985      0.017904     -1.365502
O       9.75164      1.90453      9.48225         0.092635     -0.026980     -1.297974
O       9.62341     13.50455      9.45628         0.157283      0.219146     -1.186834
O       9.58417      5.72338      0.72454         0.082320      0.089799     -1.829220
O       9.58174      5.80752     13.85662         0.286583     -0.155322      0.341778
O       9.75963      5.83965      5.15347        -0.079969     -0.026551     -1.453227
O       9.58857      5.96688      9.44908         0.124205      0.089510     -0.485430
O       9.65593      9.69579      0.73322         0.010549     -0.023412     -2.309283
O       9.68346      9.74556     14.02558        -0.032473      0.320631     -3.125308
O       9.77886      9.82892      5.12733        -0.260485     -0.280391     -2.951764
O       9.62029      9.68994      9.52699         0.265662     -0.084703     -1.432526
O       3.89177      1.88855      2.86740        -0.184733     -0.034545      0.282304
O       3.80827      2.05252     15.90901         0.089349     -0.007783      0.386147
O       3.95823     13.61973      2.78109        -0.571213      0.127302     -0.030997
O       3.86331     13.53535     16.16900         0.138728      0.553878     -0.350839
O       0.00003      1.93267      2.80136         0.001315     -0.030571      0.047667
O      15.43168      2.00165     16.09824         1.131552     -0.504750      0.297683
O      15.57374     13.54325      2.85586         0.382073     -0.084532     -0.271169
O      15.54484     13.60592     16.01414         0.727663      0.238486     -0.205833
O       3.84259      1.93271      7.16026        -0.286970     -0.186049      0.322062
O       3.91663     13.78174      7.23480        -0.687615     -0.587090      0.153570
O      15.46578      1.95979      7.21186         1.131769     -0.017715      0.769795
O      15.53247     13.58055      7.22939         0.305447      0.185721      0.116687
O       3.79558      1.94699     11.59017         1.264584     -0.216284      0.367454
O       3.91111     13.64057     11.59415        -0.838049      0.000005      0.648656
O      15.50869      1.95062     11.66500         0.314070     -0.211984     -0.368280
O       0.01750     13.62320     11.67093        -0.808176      0.011957     -0.032032
O       3.80809      5.84846      2.70158         0.105690     -0.216930      0.466397
O       3.82404      5.80885     16.16009         0.181636      0.310731     -0.289443
O      15.48265      5.77280      2.67499         1.366579     -0.241465      0.154205
O      15.53843      5.92840     16.00364         0.116844     -0.555932      0.242519
O       3.78776      5.78559      7.32543         0.742186      0.380815      0.011020
O       0.00261      5.88932      7.35430        -0.421498      0.002318     -0.111461
O       3.91711      5.87720     11.58902        -0.431705      0.079220      0.229638
O       0.00902      5.75106     11.70877        -0.096511      0.492084     -0.017409
O       3.86747      9.70359      2.85180         0.505009      0.009331      0.030431
O       3.80528      9.70351     16.04773         0.742471      0.415517      0.129237
O       0.04601      9.77341      2.89293        -0.695569     -0.755062     -0.522506
O      15.53903      9.72690     16.01088         0.062482     -0.056001      0.078775
O       3.88156      9.75434      7.25449        -0.354819      0.309685      0.133727
O      15.52738      9.75196      7.23987         0.646976     -0.180356      0.091672
O       3.82576      9.78377     11.61444         0.527224     -0.360424      0.225716
O      15.58189      9.74809     11.61088        -0.112706     -0.042172      0.165969
O       7.84329      1.93127      2.95253        -0.328200     -0.099345     -0.001562
O       7.68443      1.83047     15.91433         0.540502      0.038281      0.356641
O       7.80334     13.55165      2.84270         0.506920      0.208447     -0.147435
O       7.79257     13.73034     16.07515        -0.729007     -0.050987      0.011550
O       7.80233      1.97397      7.24901        -0.343429      0.109027      0.159656
O       7.79834     13.57481      7.22228         0.085415      0.022658      0.562553
O       7.77815      1.91983     11.63678         0.506430     -0.234222      0.207587
O       7.77386     13.58111     11.59557         0.265952      0.267740      0.595879
O       7.79315      5.74801      2.91044        -0.055874      0.403329      0.458678
O       7.79633      5.90499     16.08750        -1.033758     -0.224367      0.433025
O       7.68316      5.84587      7.20081        -0.082731      0.094908     -0.170535
O       7.72518      5.85144     11.67067         0.846186      0.294410     -0.326811
O       7.78946      9.81667      2.83363         0.078205     -0.402574      0.478667
O       7.73072      9.71655     16.09717         0.646013      0.154400      0.131539
O       7.76922      9.81401      7.21810         0.259389     -0.246101      0.082048
O       7.85042      9.77533     11.64825        -0.990833      0.200324      0.066400
O      11.75099      1.93635      2.85221        -0.875858     -0.148679      0.532269
O      11.58897      1.95046     16.14753         0.114801     -0.363818     -0.314710
O      11.66997     13.60073      2.82793        -0.080759      0.186378     -0.320487
O      11.71478     13.57997     16.08844        -0.503441      0.224889     -0.211184
O      11.65219      1.92164      7.25887         0.151426      0.504038      0.058935
O      11.68604     13.65633      7.26865         0.379425     -0.328731     -0.029405
O      11.65578      1.90466     11.70580         0.039600      0.195347     -0.189401
O      11.66939     13.65252     11.59189         0.048469     -0.320576     -0.133036
O      11.67979      5.85637      2.70900         0.053568     -0.337008      0.624927
O      11.64275      5.76200     16.02021        -0.489829      0.340876      0.422288
O      11.59333      5.84187      7.32456         0.377089      0.159589     -0.115665
O      11.67438      5.86276     11.65827        -0.326010     -0.143887     -0.129358
O      11.73406      9.67845      2.85337        -0.445696     -0.025322     -0.134634
O      11.65929      9.70571     16.05138        -0.232626      0.115102     -0.070062
O      11.68544      9.73807      7.19186        -0.204592     -0.476180      0.230533
O      11.64513      9.65334     11.67714         0.406396      0.487897     -0.346613
O       1.94107      3.81679      2.80980        -0.039047      0.993433      0.146771
O       1.83479      3.88040     16.17805        -0.012252      0.365369     -0.372848
O       1.87135     15.52206      2.88922         0.476094      0.178758     -0.474954
O       1.98475      0.03855     16.03256        -0.522590     -0.556436     -0.123222
O      13.65235      3.81869      2.84629        -0.244100      0.893643      0.290401
O      13.52778      3.91400     15.96687         0.533635     -0.938433      0.333964
O      13.69652     15.51196      2.63263        -0.157427      0.267001      0.387949
O      13.56727     15.50827     16.23217        -0.022130      0.461605     -0.625881
O       1.88137      3.91423      7.15645        -0.080514     -0.240823      0.312629
O       1.80875      0.02122      7.23255         0.157658     -0.184425      0.140935
O      13.61212      3.89764      7.21425        -0.255335      0.286947      0.567705
O      13.60133     15.54623      7.07873        -0.023198      0.339477      0.908597
O       1.97451      3.82177     11.63772        -0.463111      0.640185     -0.202370
O       1.90149      0.02145     11.60405        -0.008333     -0.211162      0.429288
O      13.62882      3.87118     11.70225        -0.379965     -0.068064     -0.129782
O      13.60278     15.59118     11.73564         0.187817     -0.263995     -0.609311
O       1.88823      7.76322      2.72288        -0.053556      0.147376      0.458376
O       1.85220      7.83350     16.03376         0.443010     -0.202515     -0.284722
O      13.73677      7.73023      2.77139        -0.464458      0.234738      0.106781
O      13.54449      7.75944     16.03096         0.157146      0.476902      0.244613
O       1.98723      7.83846      7.27593        -0.425546     -0.135016      0.333688
O      13.66618      7.82338      7.26596        -0.417863     -0.401049      0.262993
O       1.81258      7.81270     11.66867         0.806534     -0.469925     -0.225283
O      13.60740      7.76249     11.76236         0.616230      0.487667     -0.378446
O       1.95494     11.63300      2.85346         0.174024      0.690690     -0.263380
O       1.94354     11.64902     16.12516        -0.160380      0.690097     -0.449591
O      13.62240     11.64577      2.95332        -0.047950     -0.342681     -0.685349
O      13.61893     11.63406     15.95474         0.050556      0.348350      0.177175
O       1.90469     11.64114      7.32208         0.058339      0.615170     -0.051689
O      13.60020     11.65574      7.20704         0.179516      0.166662     -0.102633
O       1.98975     11.76048     11.44839        -0.291417     -1.296460      0.717885
O      13.66213     11.59250     11.61871        -0.431564      0.774449      0.050592
O       5.83865      3.86512      2.90163        -0.337253     -0.188315      0.594199
O       5.86764      3.89514     16.03245        -0.243198     -0.097695      0.165672
O       5.92680      0.00001      2.80747        -0.193640     -0.767729      0.055506
O       5.69360      0.07075     16.01970         0.081156     -0.857924      0.264429
O       5.71232      3.82968      7.24765         0.523765      0.911232      0.185599
O       5.89511      0.01057      7.29887        -0.018492     -0.412485      0.217432
O       5.82196      3.89653     11.61466         0.004887      0.087754     -0.100562
O       5.77999     15.56720     11.59546         0.326449      0.679965      0.697708
O       5.87611      7.76430      2.74955        -0.088397      0.107185      0.842044
O       5.76568      7.83007     16.18280         0.402161     -0.166991     -0.028706
O       5.67868      7.91353      7.14223         0.641699     -1.259899      0.192779
O       5.84346      7.80270     11.60763        -0.139809      0.436441      0.350374
O       5.84036     11.67234      2.94667         0.016397      0.074072     -0.405554
O       5.89602     11.69036     16.03438        -0.351067      0.348398      0.220133
O       5.78387     11.69371      7.26978        -0.001238      0.174792      0.361192
O       5.81570     11.66438     11.71743         0.128571      0.120028      0.084383
O       9.72317      3.82176      2.88154         0.411406      0.666256      0.397260
O       9.57771      3.86235     15.95046         0.152775     -0.584145      0.141618
O       9.78038     15.54862      2.89256        -0.376707     -0.275882     -0.330736
O       9.72152     15.59351     16.06289         0.041158     -0.157633      0.144882
O       9.66547      3.90685      7.28262         0.197005      0.501236      0.220508
O       9.73832     15.59047      7.14663        -0.097938      0.086625      0.531507
O       9.66775      3.92590     11.49272         0.342497      0.006346      0.193688
O       9.73954     15.58193     11.62048        -0.307016     -0.635195      0.030496
O       9.72986      7.81935      2.84019        -0.271443     -0.654824      0.323938
O       9.71698      7.73672     15.99508         0.132331      0.939270      0.677207
O       9.68193      7.80112      7.19275        -0.135422      0.383402      0.107599
O       9.77180      7.81556     11.74305        -0.539092     -0.478492     -0.635523
O       9.79695     11.65849      2.73407        -0.163804      0.528282      0.134573
O       9.63734     11.74692     16.08560         0.217035     -0.824849      0.024122
O       9.78463     11.67739      7.24082        -0.316957     -0.340597      0.290073
O       9.68290     11.70651     11.63608         0.374554     -0.457897      0.087949
