  # total energy = -7883.83779792 
CRSYTAL
PRIMVEC
    15.3600000000000000    0.0000000000000000    0.0000000000000000
     0.0000000000000000   15.3600000000000000    0.0000000000000000
     0.0000000000000000    0.0000000000000000    17.440000000000000
PRESSURE
1.94475 1.54727 -3.62053 0.313722 0.451374 -0.025865
PRIMCOORD
320 1
Pb       3.82161      3.74658      4.35272         0.138124      0.289636      0.035267
Pb       3.79068      3.74091     17.40780         0.276626      0.255432     -0.072058
Pb       3.76846     15.29002      4.38163         0.250498     -0.291406     -0.124575
Pb       3.69166     15.28883     17.30913         0.674420      0.036612      0.447907
Pb       0.06417      3.72883      4.29926        -0.266543      0.342562      0.304039
Pb       0.10006      3.85493     17.43714        -0.214558     -0.108049      0.109293
Pb       0.04913     15.31529      4.27452        -0.069517     -0.009963      0.388732
Pb      15.24944     15.26476     17.40435         0.469833      0.169011      0.283022
Pb       3.73155      3.81447      8.75895         0.182224      0.289382     -0.187765
Pb       3.85185      0.03210      8.64486        -0.271075     -0.171686      0.190168
Pb      15.25725      3.96414      8.70558         0.379187     -0.403856      0.094681
Pb      15.19704      0.04804      8.74746         0.531199      0.025393      0.405903
Pb       3.78089      3.76763     12.95521         0.338407      0.430444      0.588946
Pb       3.72181      0.01292     12.90231         0.301108      0.014799      0.348907
Pb       0.04001      3.75497     13.09242         0.134719     -0.360291     -0.013954
Pb      15.33170     15.28172     13.03051         0.209838      0.355336      0.176783
Pb       3.82511      7.64784      4.32558         0.077682      0.035504      0.171072
Pb       3.75939      7.53624     17.34076         0.053540      0.450806      0.703098
Pb       0.06972      7.80585      4.29984         0.106377     -0.557844      0.169759
Pb      15.19357      7.60100     17.37697         0.799986      0.227977      0.617156
Pb       3.82052      7.73030      8.70722         0.106015     -0.236476     -0.279337
Pb      15.34654      7.66873      8.69277         0.143367      0.208546     -0.052417
Pb       3.79689      7.56624     12.95855         0.275773      0.037558      0.314291
Pb      15.33776      7.57099     13.11863         0.230011      0.699802     -0.059377
Pb       3.80959     11.54598      4.31813        -0.021400     -0.366673      0.297238
Pb       3.82998     11.54275     17.34669        -0.107405     -0.467911      0.173595
Pb      15.27089     11.55591      4.32364         0.580140     -0.090950      0.147221
Pb      15.24331     11.54643     17.30439         0.233030     -0.249356      0.533994
Pb       3.84666     11.51406      8.70338        -0.102702      0.189894      0.042882
Pb      15.26053     11.45094      8.73356         0.413164      0.152032      0.532741
Pb       3.83570     11.43126     12.97578        -0.028265      0.268553      0.310355
Pb       0.12705     11.52829     13.04045        -0.286147     -0.452661      0.453746
Pb       7.71654      3.67594      4.31904        -0.035345      0.690321      0.754062
Pb       7.55720      3.80350      0.02445         0.004843     -0.188398     -0.384214
Pb       7.74959     15.27694      4.37916        -0.486167      0.014928      0.575654
Pb       7.59739     15.34788     17.39807        -0.082780      0.010542      0.222660
Pb       7.64927      3.87082      8.62671         0.159369     -0.244214      0.425112
Pb       7.64120     15.34248      8.66694        -0.073522      0.025002     -0.063653
Pb       7.80383      3.94368     13.04517        -0.449318      0.351779      0.583333
Pb       7.56359      0.16532     12.95837         0.241656     -0.974815      0.967672
Pb       7.73162      7.57679      4.32228        -0.164182      0.004086      0.114136
Pb       7.52867      7.73056     17.40424         0.156758     -0.082396      0.185238
Pb       7.68777      7.68604      8.67903        -0.028608     -0.007125      0.127478
Pb       7.62683      7.69092     12.97391         0.427382     -0.099190      0.380644
Pb       7.69817     11.46494      4.35902        -0.444272     -0.338224      0.004367
Pb       7.61015     11.51013     17.40911         0.061906      0.052970     -0.264610
Pb       7.63147     11.56470      8.64922         0.118513      0.051767      0.031994
Pb       7.68366     11.49362     12.94512         0.020547      0.093926      0.691395
Pb      11.42334      3.75117      4.24214         0.383475      1.143248      0.909417
Pb      11.63112      3.80415      0.04263        -0.278977      0.471849      0.174919
Pb      11.52600     15.21665      4.33681         0.081041      0.294640      0.416528
Pb      11.35652     15.26548      0.06526         0.169388     -0.033298      0.039303
Pb      11.37504      3.93769      8.65524         0.206555     -0.375449      0.561497
Pb      11.47130      0.01441      8.66820        -0.079712      0.010376      0.528408
Pb      11.59648      3.72852     13.16115        -0.215622      0.200018     -0.095741
Pb      11.56129     15.34440     12.97679        -0.240010     -0.010578      0.781012
Pb      11.45998      7.65761      4.22597         0.082777     -0.311944      0.448344
Pb      11.50864      7.64763      0.01642        -0.023523      0.153382     -0.049061
Pb      11.52265      7.69995      8.66482         0.178533      0.145861      0.349737
Pb      11.44954      7.60762     13.10554        -0.311436      0.064301      0.330244
Pb      11.55045     11.46782      4.25264         0.068629     -0.202181      0.304124
Pb      11.36085     11.45537     17.39823         0.301277     -0.099532     -0.139344
Pb      11.58777     11.51524      8.62122        -0.292212     -0.168729      0.718318
Pb      11.55973     11.47532     13.02125        -0.309152     -0.093211      0.682041
Ti       1.94894      1.86189      2.34037         0.217355      0.733150     -2.094474
Ti       1.91634      1.88021     15.44353         0.128053      0.426153     -1.893106
Ti       1.87486     13.34960      2.29639         0.466763     -0.045431     -1.283384
Ti       1.84721     13.40607     15.36826         0.521560      0.067844      0.416786
Ti      13.50462      1.85498      2.40083        -0.428565      1.262207     -1.303545
Ti      13.41846      1.87060     15.57772         0.522252      0.404091     -1.691357
Ti      13.39130     13.43280      2.33299         0.438931     -0.502140     -1.389800
Ti      13.36139     13.44422     15.39710         0.133299     -0.806545     -0.971033
Ti       1.88724      1.90516      6.68989         0.404506     -0.277635     -0.219439
Ti       1.85663     13.40564      6.75942         1.422157      0.030197     -0.289898
Ti      13.48301      2.01945      6.70584        -0.536114     -0.368614     -0.994752
Ti      13.49399     13.48837      6.75950        -0.851658     -0.678861     -1.892763
Ti       1.90725      1.94998     10.98834        -0.044472     -0.232957     -0.750578
Ti       1.93078     13.44770     11.01275         0.289948     -0.475281     -2.168215
Ti      13.38430      1.86825     11.08716         1.063236      0.639090     -0.345838
Ti      13.46882     13.37545     11.16298         0.231438      0.241846     -1.472496
Ti       1.89396      5.74172      2.38234         0.606616      0.157350     -1.763593
Ti       1.85752      5.73787     15.38652         0.522897      0.185032     -0.901732
Ti      13.46701      5.69539      2.39315        -0.416895      0.281055     -1.215931
Ti      13.41317      5.77707     15.37921        -0.559124     -0.120620     -0.374471
Ti       1.88424      5.71457      6.66272         1.055293      0.557629     -0.718407
Ti      13.46949      5.78909      6.64466        -1.076766      0.592925     -1.311526
Ti       1.87211      5.77350     11.04006         1.578438     -0.099849     -0.977618
Ti      13.46391      5.72234     11.16098        -0.386310     -0.046634     -0.307026
Ti       1.94845      9.57366      2.25533         0.876781      0.301755     -0.745881
Ti       1.84027      9.59405     15.48278         0.680307     -0.183962     -1.471246
Ti      13.54902      9.53611      2.34001        -1.330584      0.661563     -1.944404
Ti      13.39857      9.55831     15.38663         0.217932      0.552302     -0.785456
Ti       1.92317      9.64230      6.77988         1.025695     -0.066230     -1.525002
Ti      13.52510      9.60904      6.66333        -1.524616     -0.394624     -0.559991
Ti       1.95909      9.60604     11.07563        -0.652890      0.243899     -1.728318
Ti      13.46884      9.54898     11.18031         0.582174      0.237050     -0.985129
Ti       5.83224      1.81118      2.49046        -0.890097     -0.174326     -1.795859
Ti       5.76527      1.85839     15.37151         0.358273      0.436101      0.001085
Ti       5.78366     13.37103      2.40231        -0.789599      0.371547     -0.624957
Ti       5.71547     13.39513     15.31934         0.469342      0.584458     -1.436126
Ti       5.75871      2.00840      6.68652        -0.498887     -0.611526     -0.104826
Ti       5.72589     13.50280      6.69243        -0.516455     -0.556093     -1.342613
Ti       5.83427      1.96630     10.99901        -1.857012      0.244356     -1.118327
Ti       5.78713     13.42886     11.05948        -0.662943      0.099184     -0.929842
Ti       5.72638      5.66140      2.37931        -0.141796      0.604299     -1.636636
Ti       5.70435      5.74250     15.44207         0.536043     -0.629169     -1.721534
Ti       5.75692      5.73542      6.72508        -0.509282      1.140771     -0.977942
Ti       5.85941      5.74539     11.01313        -1.986957     -0.163822     -0.117509
Ti       5.76395      9.47592      2.40704        -0.344864      1.309358     -1.414393
Ti       5.69173      9.59947     15.32350        -0.003006      0.021748     -0.766918
Ti       5.83067      9.60672      6.70654        -0.702274     -0.487542     -1.240781
Ti       5.79711      9.60761     11.03587         0.048439      0.037974     -0.323216
Ti       9.68791      1.87388      2.43411        -1.158371     -0.045933     -0.935842
Ti       9.66479      1.93045     15.51985        -1.458835      0.506515     -1.044006
Ti       9.54800     13.42851      2.39663         0.284731     -0.045285     -1.138428
Ti       9.54790     13.53779     15.33720        -0.021571     -1.540488      0.118302
Ti       9.64982      1.86118      6.70772        -1.158606      1.094517     -0.913012
Ti       9.64501     13.43115      6.69685        -1.027560     -0.069774     -0.299714
Ti       9.59196      1.94372     11.13382         0.597148      0.370743     -1.689049
Ti       9.61425     13.47889     11.11529        -0.024032     -0.062743     -1.483154
Ti       9.53894      5.71453      2.26040         0.721988      0.424263      0.517524
Ti       9.58068      5.78768     15.59410        -0.465997     -0.213445     -1.523166
Ti       9.63892      5.77014      6.69924        -0.547401     -0.369751     -1.821753
Ti       9.70862      5.76583     11.03283        -0.812212      0.199883     -0.777393
Ti       9.61956      9.61090      2.34763        -0.479457     -0.462272     -0.887034
Ti       9.51899      9.59116     15.43191         0.712111      0.424514     -1.172899
Ti       9.68174      9.59592      6.69055        -0.212315      0.349018     -1.067555
Ti       9.69808      9.61782     11.04680        -0.946163     -0.797008     -0.323222
O       1.82610      2.00957      0.43522         0.710040     -0.297937      1.655996
O       2.03591      1.91806     13.55789        -0.571456     -0.127904      1.223665
O       1.83653     13.42026      0.47068         0.257034      0.106498      1.250708
O       1.79039     13.44323     13.62662         0.280455      0.175093     -0.904341
O      13.42060      1.94140      0.59226         0.163816     -0.191462      0.146270
O      13.47868      1.89780     13.75538        -0.524568     -0.007671      0.685723
O      13.49065     13.54322      0.51844        -0.279577     -0.365889      0.784837
O      13.48344     13.46749     13.58737        -0.170731      0.245117      0.715297
O       1.88702      1.88116      4.87157        -0.272730      0.214204      0.047628
O       1.87895     13.37130      4.95363         0.031534      0.238220      0.101372
O      13.61913      2.00076      4.93948        -0.495876     -0.485187      0.046274
O      13.36009     13.49992      4.90736         0.265088     -0.122073      1.151675
O       2.00523      2.03033      9.17637        -0.487316     -0.290021      0.899336
O       1.95699     13.30834      9.19704        -0.403082      0.439992      0.472156
O      13.43765      1.94446      9.33354         0.076181     -0.184585     -0.749266
O      13.43454     13.39702      9.32466         0.192665     -0.053649      0.299411
O       1.98315      5.82129      0.51465        -0.197406     -0.750480      1.161496
O       1.89479      5.70889     13.55814        -0.168965      0.324098      1.176727
O      13.52657      5.78414      0.56956        -0.328671     -0.219866      0.769623
O      13.39016      5.83733     13.57127         0.182894     -0.232211      0.260315
O       1.97795      5.74030      4.82204        -0.358166      0.031877      1.288706
O      13.32100      5.81857      4.87868         0.430748     -0.045707      0.196144
O       1.95967      5.68705      9.19294        -0.786098      0.245863      1.165224
O      13.44921      5.67751      9.38976         0.423347      0.183997     -0.175185
O       2.07113      9.60463      0.48416        -0.452234      0.133254      0.173655
O       1.87052      9.69222     13.63671         0.167885     -0.438788      0.761597
O      13.57879      9.58939      0.49711        -0.390668     -0.146369      1.689102
O      13.43210      9.58861     13.57861        -0.076029     -0.297636      0.376332
O       1.86730      9.83518      4.94040        -0.193159     -1.045930      1.329577
O      13.46985      9.58440      4.87603         0.235285      0.109496     -0.159367
O       1.99495      9.65027      9.19258        -0.432039     -0.296406      1.375789
O      13.47688      9.66425      9.34870        -0.043416     -0.146949      0.615259
O       5.89171      1.85744      0.65603        -0.268946      0.109194      0.982231
O       5.78256      1.84656     13.60598        -0.033600      0.080665     -0.097238
O       5.79685     13.42383      0.59924        -0.042314     -0.287262      0.454024
O       5.81523     13.39253     13.50213        -0.269467      0.119114      1.129727
O       5.75777      2.03733      4.90375        -0.237012     -0.325818     -0.206678
O       5.63479     13.50202      4.85928         0.408535      0.036191      1.350095
O       5.72122      2.00149      9.19136         0.195762     -0.242007      1.070829
O       5.73203     13.40375      9.24500         0.557354      0.190242      0.215123
O       5.66664      5.71736      0.52530         0.080302     -0.246116      0.975294
O       5.70040      5.68443     13.61911         0.375806      0.373227      0.964843
O       5.71960      5.80666      4.88728         0.200364     -0.049372      1.100590
O       5.79054      5.68539      9.24558         0.196379      0.324107      0.231909
O       5.82627      9.60335      0.55757        -0.088134      0.165205      1.128466
O       5.74315      9.64106     13.47906        -0.092473     -0.008070      1.366541
O       5.86683      9.45164      4.89512        -0.191034      0.250183      0.771944
O       5.80066      9.65133      9.24815         0.079090     -0.046790      0.489022
O       9.55843      1.83404      0.68384         0.353603     -0.055866     -0.287901
O       9.70035      1.96827     13.70974        -0.094498      0.099650      0.134942
O       9.57302     13.57794      0.61338         0.147768     -0.567320      0.443508
O       9.55624     13.51285     13.59735         0.256168     -0.011646     -0.877454
O       9.62652      1.99114      4.91439        -0.084443     -0.416367      0.177010
O       9.52570     13.59068      4.88481         0.747675     -0.811763      0.535384
O       9.65002      1.91145      9.34555        -0.291542     -0.141899      0.322143
O       9.52324     13.53485      9.28598         0.336120      0.143444      1.062768
O       9.69043      5.88933      0.52889        -0.458121     -0.323765     -1.010981
O       9.52407      5.80700     13.75413         0.208976     -0.434155      0.597991
O       9.54737      5.70945      4.82326         0.327308      0.182452      2.051507
O       9.67923      5.80668      9.24207         0.026880     -0.224077     -0.081805
O       9.65157      9.66999      0.52813        -0.221335     -0.288276      0.680955
O       9.61424      9.58823     13.62352        -0.082410     -0.088669      0.492095
O       9.74088      9.67438      4.86158        -0.556849     -0.023450      1.118326
O       9.75518      9.53244      9.29000        -0.214567      0.037611     -0.556300
O       3.83944      1.92828      2.73226        -0.329926      0.361793      0.078490
O       3.86418      1.80666     15.75606         0.070974      0.629402      0.479717
O       3.80846     13.31295      2.68372        -0.704620      0.274784     -0.023604
O       3.75623     13.53218     15.63120         1.152082     -0.238536      0.573680
O       0.04335      1.87336      2.70012        -0.351277     -0.084828      0.327522
O       0.04798      2.00027     15.73738        -1.631889     -0.343893      0.400649
O      15.27137     13.39236      2.71751         1.216985      0.608188      0.169429
O       0.01857     13.53733     15.76389        -1.126023     -0.169936      0.240415
O       3.75130      2.03580      6.98270         0.844099     -0.043728      0.226167
O       3.83558     13.43504      7.09561         0.149867      0.088963      0.040048
O      15.30421      1.86953      7.07337         0.237271      0.070507      0.576605
O       0.00335     13.34952      6.99039        -0.628346      0.417273      0.522420
O       3.83043      1.90490     11.44401         0.415365     -0.326839     -0.428911
O       3.83612     13.49997     11.28142         0.291515     -0.108256      0.705173
O       0.03791      1.89131     11.38233        -0.216916      0.433062      0.247818
O       0.01497     13.42407     11.44793        -0.123835     -0.200753      0.059093
O       3.82768      5.68775      2.74633        -0.113826     -0.209918      0.141519
O       3.82698      5.74777     15.72161        -0.642966      0.037541      0.289084
O       0.03196      5.85458      2.65222        -0.850950     -0.127371      0.591109
O      15.27619      5.77476     15.73937         0.937711     -0.163418     -0.020944
O       3.85826      5.82041      7.11218        -0.147945     -0.493208     -0.364890
O      15.32767      5.83874      7.00259         0.579241     -0.249546      0.404898
O       3.77613      5.76023     11.46786         0.470929      0.105277     -0.290699
O       0.06330      5.67978     11.51841        -1.062027      0.272995     -0.162377
O       3.79197      9.65556      2.73886         0.572508      0.025598      0.177870
O       3.82613      9.64789     15.77038         0.404369     -0.230739     -0.156646
O       0.01976      9.55792      2.69148        -0.239644     -0.204643      0.195721
O      15.35926      9.63369     15.78916        -0.006546     -0.458158      0.120722
O       3.87518      9.53599      7.05963        -0.031375      0.266752      0.046090
O      15.33430      9.62093      7.06752         0.770378     -0.188526      0.428923
O       3.83359      9.59337     11.40327         0.278193      0.150359      0.122354
O       0.03679      9.59517     11.43634         0.106810      0.414015      0.024065
O       7.66493      1.72019      2.86670         0.710580      0.423899     -0.151655
O       7.69096      1.93944     15.82263         0.024818     -0.057095      0.101228
O       7.69298     13.51341      2.75089        -0.129539     -0.060278      0.249108
O       7.72012     13.35900     15.73826        -1.050013     -0.014803      0.237169
O       7.60858      1.91774      7.05379         1.011146     -0.009626      0.160701
O       7.65149     13.46162      7.07285         0.225052      0.390959      0.070327
O       7.66567      2.03343     11.47028         0.558574     -0.193135     -0.159842
O       7.75752     13.39949     11.46560        -0.465554      0.007620     -0.314289
O       7.66508      5.77309      2.55138        -0.480245      0.356817      0.491118
O       7.61849      5.72153     15.82396         0.518995     -0.025425      0.458453
O       7.74918      5.75281      7.17803        -0.361067      0.396944     -0.453346
O       7.64581      5.75575     11.45316         1.079453     -0.368876     -0.016368
O       7.63940      9.47506      2.76618         0.799946      0.391028      0.027278
O       7.65917      9.69050     15.74631        -0.533382     -0.058942      0.157517
O       7.73191      9.55885      7.10717         0.449077      0.423907     -0.033584
O       7.71349      9.63068     11.45424        -0.235088     -0.096244     -0.384543
O      11.53867      1.96798      2.84564         0.538676     -0.617212     -0.568041
O      11.47508      1.93832     15.94178         1.456433     -0.584283      0.129207
O      11.51271     13.30750      2.65796         0.032217      0.702128      0.449659
O      11.48155     13.39003     15.69264         0.663292      0.316493      0.434340
O      11.46226      1.95676      7.04027         1.430344     -0.184816      0.256162
O      11.45445     13.50294      7.17479         0.900806     -0.324046     -0.422628
O      11.52587      1.88902     11.42734         0.209872     -0.165186      0.566174
O      11.58512     13.49777     11.51350        -0.855707     -0.032484     -0.144695
O      11.45023      5.64927      2.56902         0.846914     -0.044128      0.660281
O      11.50875      5.89348     15.79011         0.120474     -0.138822      0.291997
O      11.56256      5.77857      7.18024        -0.660082     -0.140032     -0.461119
O      11.53183      5.80773     11.40156         1.131963      0.150803      0.458488
O      11.48464      9.76819      2.66769         0.826814     -0.955173      0.034077
O      11.58375      9.47377     15.76414        -0.871670      0.655593      0.393861
O      11.60374      9.57824      6.99261        -0.983557      0.404787      0.545152
O      11.50902      9.46210     11.46555         0.959664      0.252671      0.311292
O       1.77913      3.83455      2.65843         0.576412     -0.391228      0.136023
O       1.80749      3.87093     15.75772         0.899657     -0.026405      0.248580
O       1.93339      0.01231      2.62458        -0.126638     -1.090456      0.343668
O       1.92687      0.06868     15.79546        -0.547946     -1.037177     -0.010858
O      13.47898      3.78542      2.74056         0.254345      0.521100      0.124627
O      13.30572      3.91585     15.80044         0.299235     -0.962501      0.025356
O      13.46696      0.02228      2.70976        -0.476377     -0.990377      0.372519
O      13.40259     15.31388     15.82784        -0.001097      0.893269      0.114808
O       1.83662      3.81751      7.08050        -0.228987      0.935112     -0.279255
O       1.99189      0.02894      7.06726        -0.665658     -0.703944      0.083739
O      13.44945      3.89292      7.00274         0.140679     -0.468775      0.466322
O      13.43872     15.30246      7.13986        -0.112309      1.063954      0.100921
O       1.97203      3.85372     11.40051        -0.403603     -0.434778     -0.112902
O       1.86410     15.30270     11.24890         0.206739      1.361956      0.601982
O      13.43520      3.80291     11.56048         0.080959      0.081825      0.014857
O      13.56296     15.33907     11.40759        -0.585718      0.275753      0.276318
O       1.93696      7.69171      2.66922         0.097274     -0.005054      0.525639
O       1.89882      7.63466     15.90131        -0.184474      0.204597     -0.887928
O      13.30479      7.61884      2.68683         0.463063      1.126762      0.103876
O      13.49761      7.68767     15.82299        -0.124220     -0.330699     -0.210621
O       1.97451      7.64722      7.11778        -0.812618      0.234747     -0.208845
O      13.42263      7.70272      7.10210         0.427850     -0.011914      0.193992
O       1.92820      7.72238     11.42399        -0.321094     -0.600199     -0.081617
O      13.56982      7.70093     11.49565        -0.255259     -1.062406     -0.110559
O       1.85181     11.48474      2.68089        -0.296902      0.662712     -0.052743
O       1.88667     11.52120     15.74541         0.062745      0.307113      0.312030
O      13.49384     11.50367      2.67129        -0.171135     -0.214808      0.212681
O      13.54006     11.49496     15.72730        -0.659013      0.726226      0.095267
O       1.97637     11.49159      7.16161        -0.314806      0.371479     -0.119145
O      13.40903     11.53077      7.11520         0.137562      0.181130     -0.199674
O       1.95569     11.57388     11.41006        -0.058465     -1.135058      0.380050
O      13.43942     11.52466     11.61612        -0.127934     -0.521647     -0.652320
O       5.88359      3.82283      2.79946        -0.548458     -0.591146     -0.293150
O       5.73426      3.80669     15.80161        -0.105168     -0.287749      0.274883
O       5.62207     15.26557      2.84104         0.387976      0.797585     -0.082880
O       5.86036     15.29267     15.75553        -0.355803      0.164508      0.039554
O       5.77267      3.87860      7.10707         0.023497      0.283220     -0.140453
O       5.68835      0.10944      7.07065         0.008576     -1.057493      0.047801
O       5.73335      3.84022     11.38487         0.007074     -0.256962      0.123750
O       5.80404     15.32451     11.33101         0.341075      1.200019      0.214810
O       5.61286      7.65985      2.65204         0.327455     -0.810668      0.373325
O       5.82993      7.74257     15.79645        -0.468411     -0.445866     -0.400780
O       5.83326      7.71053      7.21504        -0.109219     -0.736088     -0.268069
O       5.73001      7.69155     11.39994         0.187219     -0.131497     -0.086571
O       5.84646     11.49737      2.86815        -0.013375     -0.012857     -0.288070
O       5.68084     11.54188     15.72940         0.203853     -0.137022      0.293001
O       5.79002     11.54313      6.90312         0.174334     -0.122349      0.551301
O       5.68498     11.55617     11.36696         0.475672     -0.758820      0.267990
O       9.49019      3.78403      2.74360         0.131184      0.046708     -0.318552
O       9.70164      3.80065     15.98394        -0.441014      0.764749     -0.190109
O       9.73028     15.34794      2.77409        -0.115438     -0.482048      0.316288
O       9.60555     15.33961     15.89749         0.086415      0.605595     -0.208889
O       9.51061      3.83058      7.13070         0.754241      0.242393     -0.194431
O       9.61190      0.01316      7.01652        -0.265781     -0.324648      0.493594
O       9.80105      3.89003     11.38331        -0.947492     -0.844672      0.780837
O       9.59359      0.06574     11.48717        -0.022355     -0.481945      0.014027
O       9.60133      7.66697      2.77112         0.238926      0.165230     -0.409920
O       9.56805      7.71483     15.80371        -0.282451     -0.171335      0.529825
O       9.63875      7.70301      6.95231         0.099789     -0.254676      0.345048
O       9.57154      7.57971     11.38624        -0.167403      1.304101      0.640125
O       9.55327     11.50408      2.64701        -0.557485      0.450593      0.533473
O       9.67463     11.49956     15.82711        -0.201006      0.134637      0.014492
O       9.57451     11.55564      7.18079         0.295785     -0.320013     -0.622453
O       9.73804     11.48189     11.32266        -0.170028      0.926697      0.432444
