  # total energy = -7880.04191579 
CRSYTAL
PRIMVEC
    15.6000000000000000    0.0000000000000000    0.0000000000000000
     0.0000000000000000   15.6000000000000000    0.0000000000000000
     0.0000000000000000    0.0000000000000000    17.640000000000000
PRESSURE
-5.40031 -5.60925 -6.22237 -0.038007 0.375966 -0.018158
PRIMCOORD
320 1
Pb       3.80910      3.92169      4.30622         0.210817     -0.313130     -0.286006
Pb       3.83767      3.80557     17.54362        -0.192288     -0.038189      0.410386
Pb       4.04054      0.08976      4.35602        -0.524139      0.353994     -0.267780
Pb       3.94706     15.49761     17.49367        -0.586461      0.220885      0.466076
Pb      15.59026      3.86767      4.35107         0.183103     -0.177748      0.144995
Pb      15.49592      3.90652     17.60846         0.204850     -0.416741     -0.113400
Pb      15.56633     15.58873      4.41020         0.485696      0.162020     -0.180891
Pb       0.13215     15.50380     17.50910        -0.157972      0.006693      0.058296
Pb       3.96390      3.80077      8.71624        -0.158318     -0.019362      0.442539
Pb       3.87690     15.54187      8.75033         0.213970     -0.358178     -0.146358
Pb      15.54723      3.85341      8.73574        -0.004917     -0.034983     -0.482004
Pb       0.02871     15.41725      8.89369         0.168397      0.161922     -0.502991
Pb       3.79179      3.98792     13.21250        -0.168095      0.118865     -0.532883
Pb       3.77167     15.53184     13.13937         0.241043     -0.051695     -0.319793
Pb      15.48091      3.84714     13.10726         0.105315      0.192603     -0.175403
Pb      15.58322     15.58278     13.12542         0.382888      0.043066     -0.436978
Pb       3.82286      7.72452      4.37434         0.270017      0.400312     -0.285024
Pb       3.75740      7.71296     17.62535         0.074666      0.536395     -0.286019
Pb      15.48565      7.84245      4.41522         0.121037      0.035024     -0.648218
Pb      15.51749      7.72736      0.01529         0.361068      0.636669     -0.342582
Pb       3.94923      7.75430      8.70762        -0.187568      0.240721      0.050770
Pb      15.57067      7.68050      8.78918         0.208824     -0.003564     -0.402789
Pb       3.85284      7.71872     13.19988        -0.439237      0.108215     -0.558719
Pb      15.48908      7.82090     13.20871         0.051420     -0.481225     -0.171344
Pb       3.88242     11.72998      4.35437         0.614482     -0.273424     -0.244930
Pb       3.89674     11.66615     17.63605        -0.434781     -0.041582      0.187767
Pb      15.53731     11.67464      4.46198        -0.261631      0.208927     -1.044683
Pb      15.53833     11.66975      0.07459         0.567485     -0.260657     -0.619302
Pb       3.85231     11.62177      8.72413         0.278263      0.422557     -0.018365
Pb      15.53666     11.69942      8.79595         0.629585      0.096425     -0.077973
Pb       3.88552     11.74264     13.18097         0.137575     -0.460256     -0.088341
Pb       0.00118     11.63262     13.12789        -0.061538      0.126603      0.061180
Pb       7.74917      4.01641      4.33497         0.231183     -0.073603     -0.446189
Pb       7.72125      3.82266     17.51063         0.150882     -0.028794     -0.069044
Pb       7.86984      0.09469      4.30157        -0.047300     -0.266799      0.337554
Pb       7.88185     15.56031     17.56844         0.030518      0.092427     -0.141354
Pb       7.82464      3.84338      8.78310        -0.019965      0.101764      0.219022
Pb       7.72354     15.48796      8.78058         0.310261      0.281756     -0.167889
Pb       7.68746      3.92971     13.10184        -0.002052     -0.196832     -0.295057
Pb       7.70626     15.47618     13.22976         0.330430      0.301371     -0.310948
Pb       7.70334      7.97448      4.34546         0.321943     -0.196130     -0.181709
Pb       7.79439      7.81682      0.03684        -0.276091      0.189281     -0.511899
Pb       7.78971      7.76989      8.77259         0.055908      0.047226     -0.135503
Pb       7.63462      7.71713     13.13632         0.621064      0.261682     -0.202420
Pb       7.78514     11.83291      4.35952        -0.013017     -0.213010     -0.060327
Pb       7.73899     11.68139      0.04648         0.060273     -0.245780      0.026757
Pb       7.69397     11.67973      8.88623         0.074726     -0.213556     -0.589260
Pb       7.86566     11.57337     13.24169        -0.083437     -0.396609     -0.381639
Pb      11.56712      3.99694      4.38198        -0.252774     -0.480994     -0.120579
Pb      11.73356      3.96398     17.54883        -0.094974     -0.488812     -0.285717
Pb      11.74138      0.10055      4.42600         0.009895      0.052486      0.058797
Pb      11.66070     15.59612     17.57751         0.247508      0.002261     -0.490490
Pb      11.67198      3.87927      8.79694         0.237220     -0.468850     -0.818113
Pb      11.69638     15.57248      8.87563        -0.065148      0.481764     -0.383835
Pb      11.54402      3.89544     13.22616         0.071069     -0.112972     -0.184735
Pb      11.71199     15.46225     13.15767        -0.735984      0.590426     -0.248098
Pb      11.61127      7.81922      4.40694        -0.039735      0.136256     -0.633309
Pb      11.54808      7.85952     17.63419         0.530336      0.265930     -0.199512
Pb      11.71610      7.74512      8.76234        -0.141954     -0.070406     -0.636935
Pb      11.62557      7.80819     13.20811         0.010526     -0.373794     -0.216236
Pb      11.73570     11.93953      4.41055         0.140891     -0.244517     -0.632969
Pb      11.76379     11.72887     17.63046        -0.061651     -0.085129     -0.342735
Pb      11.70079     11.61601      8.70371        -0.233347      0.081490      0.042917
Pb      11.74746     11.69449     13.09264        -0.148065     -0.448747     -0.032324
Ti       1.91119      2.00953      2.39000         0.732939     -1.140883     -1.000342
Ti       1.85796      1.95921     15.51904         0.523311     -0.065481      1.011524
Ti       2.01731     13.67872      2.38538        -0.310815      1.180897     -1.458034
Ti       1.96807     13.61350     15.53506        -0.449606     -0.992467     -0.629537
Ti      13.63582      1.94725      2.36118         0.132347      0.048888     -1.290215
Ti      13.58100      1.84588     15.52651         0.359479      0.408823      0.771907
Ti      13.78897     13.74204      2.24975        -0.959226     -1.024921     -0.650291
Ti      13.66680     13.57864     15.50778         0.211738      0.260720      0.228964
Ti       2.06974      1.86969      6.80571        -0.394215     -0.590735     -0.641891
Ti       2.15675     13.50892      6.57637        -1.251505      1.978523      0.845133
Ti      13.76924      1.85854      6.92354        -1.055042     -0.224619     -0.720659
Ti      13.80588     13.58827      6.78642        -0.081063      1.145157     -0.894984
Ti       1.97527      1.94469     11.10394        -0.503336     -0.189243      1.249412
Ti       1.99856     13.51137     11.23069         0.350483      0.900622     -1.931535
Ti      13.61416      1.88916     11.19915         0.186912      0.139369     -1.189456
Ti      13.63624     13.59391     11.13657         0.532758     -0.206204     -0.115973
Ti       1.96074      5.90432      2.36504        -0.490755     -0.259252      0.045905
Ti       1.91864      5.81987     15.62391        -0.191556      0.308072     -1.611391
Ti      13.68055      5.78353      2.47627        -0.457153      0.439131     -1.300244
Ti      13.68256      5.80879     15.59169        -0.227527      0.472920     -1.623363
Ti       1.96749      5.78904      6.75853        -0.704270     -0.088399     -0.835873
Ti      13.61389      5.83088      6.65633         0.092220     -0.921283      0.865100
Ti       1.78762      5.82055     11.08301         0.488464      0.237643      1.298046
Ti      13.55716      5.78808     11.10299         0.703820      0.204877      0.137916
Ti       1.99489      9.81056      2.40745        -1.221618     -0.564403     -1.906128
Ti       1.99593      9.77514     15.62440        -0.941879     -0.021221     -0.223654
Ti      13.70411      9.77071      2.33428        -0.339693      0.040851      0.249511
Ti      13.67378      9.72529     15.64285         0.137685     -0.224555      0.448508
Ti       1.86502      9.69732      6.74293         1.165369     -0.258014     -0.096919
Ti      13.68779      9.68466      6.79098        -0.428736     -0.318647     -1.246370
Ti       1.91450      9.70633     11.16379         0.836788     -0.806834      0.636722
Ti      13.65928      9.66851     11.13059        -0.211234     -0.154092      0.591167
Ti       5.96062      2.04597      2.34367        -0.473870     -0.777055     -0.778788
Ti       5.81677      1.87226     15.66988         0.044496      0.300528     -1.205832
Ti       5.85201     13.71946      2.42377         1.266547     -0.569882      0.976164
Ti       5.87334     13.56098     15.64723         0.026072      0.546794     -2.281062
Ti       5.95757      1.98329      6.82786        -0.156987     -1.088492     -1.051732
Ti       5.98740     13.66812      6.70860        -1.155999     -0.337361      0.386637
Ti       5.79330      1.81010     11.28045         0.078118      0.523808     -1.906544
Ti       5.93304     13.48661     11.25373        -1.517471      0.544932     -1.227886
Ti       5.80416      5.85006      2.22781         0.466364      0.164335      0.671935
Ti       5.79543      5.84590     15.64366        -0.262394      0.285961      0.450632
Ti       5.85587      5.79439      6.76805         0.100400      0.928057     -0.600134
Ti       5.79752      5.80225     11.16084         0.319766      0.097724     -1.233828
Ti       5.84617      9.77991      2.42430        -0.194478      0.810379     -1.228144
Ti       5.83975      9.77869     15.63542        -0.112348     -0.986478      0.180947
Ti       5.82746      9.69804      6.82856         0.276601      0.878374     -1.565043
Ti       5.82778      9.69871     11.13623        -0.540505      0.026007     -1.033285
Ti       9.77949      1.87683      2.35902         0.332019      1.444636     -0.959375
Ti       9.71428      1.96408     15.54755         0.838699     -0.274768     -1.240577
Ti       9.78659     13.66097      2.34174        -0.006580      0.153994      0.998299
Ti       9.78360     13.59302     15.51832        -0.045534      0.738056     -1.113806
Ti       9.80573      1.87395      6.83964         0.601338     -0.409896     -0.411127
Ti       9.83395     13.63889      6.79028         0.000490      0.751625     -1.535882
Ti       9.72733      1.89825     11.17123         0.341260     -1.364435     -0.614063
Ti       9.76465     13.55088     11.15398        -0.605615      0.430117      0.321033
Ti       9.70892      5.87457      2.24539        -0.033490      0.060883      1.687384
Ti       9.68875      5.90753     15.63798         0.352791     -0.600139     -1.727041
Ti       9.70942      5.82331      6.84584         0.578840      0.579235     -0.655690
Ti       9.76235      5.78347     11.09402        -1.073896      1.188463      0.020222
Ti       9.84441      9.83103      2.41746        -0.124144     -0.495607     -1.223587
Ti       9.66507      9.79906     15.58705         0.600546     -0.223795     -0.062902
Ti       9.76585      9.80964      6.78691        -1.154714     -1.100771     -1.596383
Ti       9.79704      9.66850     11.16562        -1.144007      0.535200     -0.576193
O       1.98662      2.03088      0.61094        -0.300341     -0.261801      0.388122
O       1.87262      1.85773     13.78180         0.070288      0.406677      0.101588
O       2.05038     13.77875      0.51175        -0.046156     -0.321640      1.507964
O       1.89439     13.49900     13.67874         0.586474      0.280812      1.434633
O      13.67432      2.06898      0.53868        -0.166707     -0.097871      1.488937
O      13.66481      1.85614     13.76994        -0.298059     -0.035002     -0.386614
O      13.60340     13.59945      0.41120         0.417512      0.339944      1.897305
O      13.71335     13.56571     13.67940        -0.337900     -0.115692      0.924079
O       2.01503      1.80953      5.03477         0.061500      0.579611      0.310914
O       1.98877     13.70856      4.81806         0.223730     -0.724578      0.077728
O      13.81497      1.69592      5.14353        -0.330582      0.402617      0.495272
O      13.91599     13.62935      4.97831        -0.634382     -0.169896      0.908702
O       2.02730      1.96511      9.38513        -0.035182     -0.166656     -1.270845
O       2.11137     13.63479      9.40151        -0.458654     -0.123142      1.123341
O      13.67865      1.75152      9.41058        -0.099833      0.435933      0.254938
O      13.79247     13.57027      9.35273         0.075463     -0.224199      0.410997
O       1.94913      5.79226      0.63393        -0.202865      0.279606     -0.775497
O       1.91301      5.80862     13.80551         0.050496     -0.171748      0.855693
O      13.75524      5.67006      0.64954        -0.313807      0.124965      1.149574
O      13.72151      5.98501     13.77841        -0.392331     -0.456034      1.183192
O       2.02028      5.79355      4.96920        -0.009937      0.209540      0.444340
O      13.53872      5.90619      4.91384         0.130506     -0.151498     -1.217344
O       1.72615      5.90502      9.33853         0.289401     -0.276557     -0.219461
O      13.55541      5.75884      9.33204         0.191202      0.252423      0.263420
O       1.84484      9.70044      0.60849         0.463300      0.329167      0.944898
O       2.06483      9.81827     13.81359        -0.416252     -0.114700      1.138733
O      13.70151      9.68281      0.54565        -0.166324      0.499082      0.618848
O      13.69076      9.78391     13.87749        -0.138483     -0.245334      0.232061
O       1.99336      9.70834      4.97150        -0.336361     -0.057482      0.656127
O      13.70842      9.69894      4.99078         0.109237      0.091069      0.998261
O       1.93243      9.58617      9.45036        -0.287070      0.253366     -1.367418
O      13.69921      9.63249      9.38260        -0.100605      0.240711     -0.666502
O       6.00917      1.93004      0.54713        -0.206479      0.344837      0.669841
O       5.88563      1.88013     13.88217        -0.352277     -0.078387      0.385873
O       5.93742     13.48821      0.71624        -0.068852      0.375876     -1.530130
O       5.74516     13.58472     13.80430         0.648033     -0.048375      1.193926
O       5.96203      2.01664      5.04772        -0.167496      0.217928      0.480044
O       6.02139     13.61221      4.97574        -0.328842      0.329490     -0.619405
O       5.76687      1.83684      9.45407         0.377831      0.102284      1.144532
O       5.87920     13.54202      9.43775         0.173418     -0.137206      0.598571
O       5.85756      5.84290      0.47650         0.020101      0.081562     -0.008977
O       5.65342      5.87866     13.89552         0.713002     -0.182722     -0.517568
O       5.92454      5.88906      4.97364        -0.168024     -0.348814      0.916793
O       5.98871      5.92540      9.39133        -0.934792     -0.162872      0.526690
O       5.82073      9.98943      0.61387         0.345939     -0.429894      1.335103
O       5.99091      9.79064     13.87743        -0.456986     -0.093546      0.114200
O       5.71124      9.68025      4.99702         0.348103     -0.287220      0.570733
O       5.76096      9.80547      9.27242         0.400039     -0.388788      1.137327
O       9.80359      1.94945      0.56745        -0.095806     -0.209026      0.187664
O      10.02135      1.87576     13.73312        -0.701769      0.572566      1.047766
O       9.75877     13.79970      0.60197         0.122651     -0.470929     -0.658352
O       9.77924     13.71041     13.70008         0.142080     -0.497180      1.040355
O       9.96054      1.87631      5.03928        -0.318698     -0.166456      0.270574
O       9.91755     13.72483      4.91801        -0.413696     -0.223674      2.009472
O       9.89511      1.77476      9.37654        -0.934641      0.518585      1.693958
O       9.60883     13.49998      9.41645         0.115233      0.074029     -0.477509
O       9.70439      5.88236      0.53165         0.092856     -0.206410     -1.260178
O       9.75344      6.01132     13.80877         0.220290     -0.329290      0.710112
O       9.74062      5.78842      5.06552        -0.235825     -0.102410      0.598407
O       9.62875      5.83532      9.32341         0.676021     -0.177961      0.233249
O       9.85017      9.84891      0.56699        -0.278451     -0.249114      1.230005
O       9.59100      9.75821     13.79678         0.239002     -0.237301      0.711887
O       9.72508      9.66610      4.95636         0.420009      0.288824      1.072242
O       9.67831      9.78836      9.39785         0.554788     -0.043231     -0.190505
O       3.92983      2.02365      2.76269         0.345882     -0.289140      0.246453
O       3.89029      1.94971     16.05903        -0.098347     -0.728620     -0.312578
O       4.03309     13.73580      2.84940        -1.125685      0.012334     -0.161477
O       3.97313     13.60380     15.93635        -0.602287     -0.078777      0.203307
O       0.03101      1.97205      2.85556        -0.805913     -0.125526     -0.148594
O       0.03587      1.82799     15.98786         0.065894      0.240387     -0.291744
O       0.01678     13.64914      2.65337         0.211352      0.283800     -0.122689
O       0.01296     13.54059     15.91736        -0.184232      0.490251     -0.030217
O       4.00147      1.98472      7.28117        -0.513816      0.165174     -0.347732
O       3.91294     13.53084      7.11699         1.052976     -0.262664     -0.214927
O       0.02712      1.82218      7.32263         0.604136      0.067844     -0.108814
O       0.08422     13.70036      7.11844         0.037803     -0.383967      0.440190
O       3.85489      1.92781     11.54519         0.708113      0.013167      0.565012
O       3.93460     13.58634     11.64234        -0.425728      0.152553      0.280828
O      15.54763      1.93636     11.54170         0.142845      0.053430      0.255110
O       0.13506     13.46883     11.52591        -1.771402      0.407972     -0.026527
O       3.86976      5.70602      2.59095         0.302693      0.520434      0.699543
O       3.84998      5.90649     15.85835         0.429026     -0.019872      0.984503
O      15.59250      5.76783      2.78621        -0.774362      0.431917      0.286925
O      15.58583      5.74840     15.95431         0.236050      0.277509      0.510636
O       3.89022      5.83352      7.05478         0.263117     -0.049051      0.550294
O      15.54359      5.77077      6.98387         0.408951     -0.075342      0.587010
O       3.86366      5.75992     11.61162        -0.370197      0.340089     -0.315095
O      15.47868      5.77169     11.55430         0.933857      0.085813     -0.232671
O       3.83520      9.78090      2.69392         1.140176      0.228699      0.662487
O       3.81035      9.74089     16.18374         0.717880      0.232539     -0.624271
O       0.07430      9.70500      2.77848        -1.125759      0.533152      0.534094
O      15.58573      9.79404     16.15345         0.031651     -0.043804     -0.691078
O       3.89755      9.73261      7.11443        -0.729146     -0.350683      0.483192
O      15.57490      9.64403      7.16220         0.449702     -0.020435      0.038680
O       3.89232      9.60473     11.51725         0.079418      0.321956      0.190304
O      15.52095      9.73109     11.63754         0.700499      0.092992     -0.261331
O       7.88157      2.06674      2.73702        -0.760465     -0.061351      0.336834
O       7.74404      1.93369     15.93767         0.871806      0.070639      0.222571
O       7.87595     13.66918      2.80457        -0.048081     -0.345991      0.047738
O       7.87439     13.69133     15.87990        -0.258499     -0.301037      0.412085
O       7.86386      1.86077      7.16292        -0.955184     -0.026998      0.473401
O       7.79978     13.75603      7.11368         0.936362     -0.423399      0.359804
O       7.79145      1.91909     11.67866         0.116662     -0.069213     -0.167473
O       7.74185     13.56415     11.52430         0.912520      0.014612      0.628708
O       7.77182      5.89999      2.63900        -0.156196     -0.500216      0.211463
O       7.79535      5.86524     15.86963        -0.723075      0.082124      0.536103
O       7.72282      5.83328      7.28079         1.251235     -0.352301     -0.473065
O       7.77367      5.78642     11.48188         0.517097      0.446457      0.848878
O       7.77087      9.89834      2.73193        -0.359554     -0.749911      0.168428
O       7.74173      9.72051     16.05971         0.978083      0.193780      0.269182
O       7.84509      9.62912      7.05837        -0.243871      0.166089      0.442352
O       7.76860      9.73023     11.51136        -0.583082      0.111644      0.291097
O      11.75970      1.88986      2.84293        -0.190829     -0.190926     -0.229012
O      11.70207      1.95698     16.02037         0.168214      0.289962     -0.157023
O      11.71502     13.59304      2.75500         0.234472      0.612700     -0.205077
O      11.72644     13.65972     15.95218        -0.456822     -0.208259     -0.212491
O      11.64475      1.76893      7.31696         1.522848      0.516527      0.015116
O      11.71711     13.43124      7.07834         0.304164      0.202935      0.292639
O      11.69910      1.75429     11.46313        -0.115874      0.686897      0.590873
O      11.67791     13.58384     11.31714         1.025412     -0.064184      0.677470
O      11.62115      5.97724      2.68119         0.475002     -0.580385      0.313070
O      11.71227      5.82520     15.95196         0.357959     -0.120594      0.308341
O      11.71311      5.70188      7.10450        -1.070299      0.263474      0.535396
O      11.71384      5.92103     11.55999        -1.266434     -0.218943      0.003549
O      11.79570      9.81626      2.73065        -1.015932     -0.062606      0.124215
O      11.60485      9.71992     15.99955         0.501495     -0.214747     -0.076475
O      11.71311      9.66454      7.26841         0.292588      0.595552     -0.206679
O      11.68163      9.72428     11.58911         0.275599     -0.183002      0.102404
O       1.86884      3.88507      2.78082         0.324777      0.425065      0.553278
O       2.03924      3.91425     16.06331        -0.568407     -0.821656     -0.736238
O       1.96273     15.58365      2.69215         0.152229      0.377803      0.384097
O       1.97537     15.47496     15.92300         0.130765      0.816117     -0.124067
O      13.58795      3.81478      2.92379         0.196827      1.223636     -0.279099
O      13.79379      3.83371     15.84805        -0.760335      0.148917      0.313428
O      13.67171      0.03398      2.68634         0.212912     -0.565208      0.026520
O      13.61974     15.55634     15.96868         0.215684     -0.161882     -0.331508
O       1.97807      3.83366      7.11535        -0.119288      0.423207      0.364049
O       2.23076     15.51877      6.99050        -0.660463      0.483756      0.702329
O      13.57839      3.83687      7.19180         0.475358     -0.682840      0.109995
O      13.61018     15.48409      7.20952         0.220718     -0.457101      0.343919
O       1.91370      3.86171     11.52278        -0.179070      0.654079      0.158016
O       1.90123      0.03233     11.53031         0.139587     -0.676785      0.341198
O      13.55759      3.86370     11.52188        -0.155482     -0.170460      0.247149
O      13.73983     15.50071     11.52261        -0.116692     -0.617556      0.165126
O       1.91797      7.82607      2.71104         0.483112     -0.974720      0.500226
O       1.91455      7.75352     16.05590        -0.188341      0.362937     -0.076651
O      13.57999      7.89929      2.78245         0.823291     -1.261138      0.145897
O      13.79554      7.77684     16.00835        -0.686287     -0.101465     -0.001456
O       1.85276      7.74721      7.19963         0.479479      0.227490     -0.253599
O      13.57604      7.67296      7.04635         0.115030      1.237553      0.638382
O       1.89954      7.77647     11.58498        -0.342147     -0.970335      0.083250
O      13.67659      7.77101     11.50775        -0.216163     -0.007255      0.224373
O       1.97837     11.79971      2.65841         0.225806     -0.770825      0.527062
O       1.91894     11.70101     16.12994         0.414406      0.090794     -0.572653
O      13.72886     11.79260      2.79364         0.099211     -0.551282     -0.116658
O      13.57119     11.68165     16.05647         0.190269      0.040433     -0.362038
O       1.95596     11.70003      7.11994        -0.510342     -1.407746     -0.074773
O      13.84560     11.58898      7.12636        -0.652023      0.595486      0.262931
O       1.98233     11.61600     11.41998         0.225979     -0.138426      0.557893
O      13.57478     11.59438     11.54012         0.290292      1.080724     -0.049573
O       5.85429      3.92333      2.75604         0.339167      0.367927     -0.050263
O       5.76187      3.89591     16.02573         0.507270      0.057170     -0.149078
O       6.04215      0.09078      2.76412        -0.626603     -0.097649      0.041083
O       5.93528     15.48925     16.10507        -0.436038      0.519499     -0.236401
O       5.92811      3.89472      7.30888        -0.211341      0.013662     -0.373877
O       5.76931     15.59196      7.04445         0.236646     -0.020909      0.605179
O       5.90333      3.92162     11.46486        -0.336707     -0.874524      0.886576
O       5.82321     15.52429     11.59638         0.106674      0.172850      0.372839
O       5.70895      7.79807      2.69170         0.423628      0.142735     -0.007994
O       5.82026      7.91709     16.07955        -0.040258     -1.155018      0.040511
O       5.86907      7.74704      7.22350        -0.327146      0.040293     -0.095426
O       5.79578      7.75857     11.62151         0.223238      0.085934     -0.018401
O       5.85845     11.76856      2.89123        -0.320605     -0.612322      0.137368
O       5.90995     11.67457     16.06222        -0.144416      0.563126      0.062734
O       5.93377     11.68032      7.03464         0.026305     -0.235953      0.671387
O       5.74325     11.57554     11.57694         0.418983      0.404888      0.088984
O       9.82784      3.79743      2.75314        -0.046177      1.691959      0.137214
O       9.69829      3.89639     15.86581         0.210894     -0.083759      0.358809
O       9.61996      0.04066      2.71325         0.903946     -0.808946      0.159783
O       9.80273      0.05192     15.85679        -0.228424     -0.423279      0.628223
O       9.77560      3.70960      7.27098        -0.339780      1.997003      0.071765
O       9.80266     15.55742      7.35539        -0.228105     -1.581629     -0.468865
O       9.68676      3.92564     11.49942         0.769602     -0.636416      0.326719
O       9.77790     15.53726     11.60041        -0.534026     -0.141571     -0.164474
O       9.60711      7.84805      2.69000         0.592918     -0.047102      0.109142
O       9.75551      7.74264     16.14816        -0.442677      0.973899     -0.275722
O       9.80384      7.75342      7.11362         0.058529     -0.539001      0.532278
O       9.66410      7.83428     11.46835         0.441866     -1.311379      0.398754
O       9.78493     11.67646      2.80295         0.004760      0.797047     -0.064243
O       9.71682     11.69837     15.86677         0.039294      0.078527      0.153479
O       9.70826     11.68733      7.15190         0.079988      0.071948      0.088977
O       9.72316     11.64124     11.59874         0.129787      0.465629      0.284494
