  # total energy = -7880.65304374 
CRSYTAL
PRIMVEC
    15.3600000000000000    0.0000000000000000    0.0000000000000000
     0.0000000000000000   15.3600000000000000    0.0000000000000000
     0.0000000000000000    0.0000000000000000    17.440000000000000
PRESSURE
2.34002 2.4792 4.28195 -0.370604 -0.338024 -0.08614
PRIMCOORD
320 1
Pb       3.84730      3.82652      4.38118        -0.516130      0.129809     -0.639652
Pb       3.90102      3.83339     17.39774        -0.390541     -0.617588      0.116634
Pb       3.80846      0.02398      4.29263        -0.205968     -0.077178      0.037485
Pb       3.66445      0.00125     17.37446         1.054249      0.129613      0.499610
Pb       0.03318      3.71485      4.34884         0.107215      0.975857      0.258101
Pb       0.07792      3.98316     17.39664         0.089846     -0.384426      0.146704
Pb       0.06092     15.35671      4.29475        -0.582582     -0.317085      0.741690
Pb      15.24374     15.29922     17.38333        -0.160121      0.221977      0.565446
Pb       3.75142      3.72872      8.74302         0.305660      0.034352      0.133928
Pb       3.89979      0.01578      8.56273        -0.280806     -0.176716      0.640971
Pb      15.20902      3.91573      8.63725         0.527885     -0.489901      0.618167
Pb      15.20812      0.01398      8.67306         0.602218     -0.120073      0.394911
Pb       3.69402      3.71055     13.09536         0.375272      0.004226     -0.591540
Pb       3.71349     15.31731     12.95979         0.510558      0.007878      0.239072
Pb       0.03757      3.79201     13.05986        -0.294541      0.261337     -0.401892
Pb       0.00873     15.32493     13.05790        -0.246779     -0.331849     -0.397604
Pb       3.86147      7.64789      4.32972        -0.491217      0.369252     -0.485633
Pb       3.79654      7.57110     17.35430         0.131322      0.166055      0.512504
Pb       0.08940      7.82245      4.36145         0.342118     -0.282708     -0.369698
Pb      15.13142      7.68498     17.36993         0.393102      0.430793      0.382780
Pb       3.86974      7.70640      8.66734         0.002746      0.072281      0.493192
Pb       0.06974      7.59224      8.62890        -0.114826      0.201193      0.111176
Pb       3.79215      7.56380     12.96135         0.378956      0.360213     -0.053896
Pb       0.01407      7.62606     13.10499        -0.091541      0.074583     -0.128523
Pb       3.80196     11.59888      4.21168        -0.399193     -0.582749      0.244159
Pb       3.98512     11.59342     17.39864        -0.407020      0.001490      0.298758
Pb      15.35995     11.57132      4.37738         0.384440     -0.662472     -0.776088
Pb      15.29003     11.59848     17.26589        -0.073862     -0.839329      1.122571
Pb       3.87397     11.54550      8.60490        -0.213848     -0.308219     -0.124569
Pb      15.24846     11.41175      8.67901         0.262228     -0.137420     -0.205884
Pb       3.88802     11.48834     13.16465         0.102714      0.002338     -0.427359
Pb       0.13054     11.59072     13.07076        -0.479026     -0.537852      0.402187
Pb       7.72830      3.73341      4.38365         0.029025      0.689372     -0.237800
Pb       7.66885      3.90096     17.37338        -0.231651     -0.402057      0.848529
Pb       7.72759      0.04327      4.35384        -0.473695     -0.217253      0.112041
Pb       7.60542      0.08867     17.30512         0.068012     -0.380927      0.300653
Pb       7.66476      3.78411      8.77462        -0.854849     -0.071958     -0.238869
Pb       7.65198     15.18457      8.68391        -0.476670      0.589832      0.031886
Pb       7.83659      3.88674     13.12340        -0.144035      0.291894     -0.588301
Pb       7.62949      0.13501     13.04349         0.031039     -1.111903      0.228564
Pb       7.70778      7.52830      4.30444        -0.019609      0.310918      0.338151
Pb       7.62734      7.77794     17.37238         0.277685     -0.019620      0.599198
Pb       7.66105      7.69971      8.63684        -0.098731     -0.301778      0.334056
Pb       7.54297      7.70026     13.00818         0.369349     -0.017807     -0.022647
Pb       7.65530     11.55554      4.30252        -0.443621     -0.556498      0.641953
Pb       7.76289     11.50245      0.01331        -0.156223     -0.018634     -0.240863
Pb       7.46334     11.56269      8.52856         0.811913     -0.186074      0.564825
Pb       7.72857     11.44267     13.03504         0.149328      0.210875      0.313152
Pb      11.43767      3.80629      4.29185         0.124085     -0.280045      0.632100
Pb      11.75488      3.87959      0.00301        -0.872081      0.158097      0.145820
Pb      11.47699     15.23640      4.30310         0.574728      0.859362      0.046531
Pb      11.37668     15.28241      0.00465         0.485164      0.101795     -0.193918
Pb      11.35813      3.87941      8.69689         0.772332     -0.339318     -0.245132
Pb      11.54061     15.32190      8.69993        -0.221710      0.000712      0.235985
Pb      11.61331      3.72384     13.09738        -0.071922      0.500344     -0.588950
Pb      11.60603      0.00313     12.95482        -0.602138     -0.860574      0.439793
Pb      11.47392      7.67137      4.29149         0.240964     -0.474967      1.004959
Pb      11.57521      7.64184     17.37585        -0.004387      0.054834     -0.131004
Pb      11.47472      7.68781      8.71717         0.097402     -0.182603     -0.308101
Pb      11.38966      7.67294     13.05359         0.223629      0.014317     -0.306034
Pb      11.59719     11.43741      4.28638        -0.218259      0.197400      0.388219
Pb      11.42508     11.39954     17.35228         0.354573      0.776328      0.492960
Pb      11.65275     11.48553      8.55622        -1.104819      0.043524      1.473152
Pb      11.54537     11.44834     12.99513        -0.469004      0.384564      0.231920
Ti       1.81930      1.83841      2.30857         1.205921      1.248141      0.291208
Ti       1.80079      1.86733     15.43786         1.476462      0.138513      1.194682
Ti       1.85207     13.43572      2.17647         0.704089     -1.064882      0.148145
Ti       1.86050     13.45735     15.46027         0.634151     -0.885579      0.295294
Ti      13.45423      1.97970      2.34875        -1.759662     -0.806465      2.665287
Ti      13.41775      1.93211     15.45137        -0.101444     -1.109591     -0.072088
Ti      13.42840     13.48073      2.28541        -0.246050      0.000566      1.052018
Ti      13.33783     13.42954     15.35434        -0.076639      0.500325      0.685753
Ti       1.84910      1.90197      6.75781         0.520647     -0.541501     -0.088387
Ti       1.75124     13.45675      6.69206         1.196215     -0.830748      0.660010
Ti      13.39094      1.91672      6.69879        -0.348110     -0.123870     -0.588018
Ti      13.36762     13.44654      6.72347         0.299615     -1.026269     -1.383828
Ti       1.77568      1.81481     11.02212         1.316690      0.755023     -0.606532
Ti       1.93488     13.28977     10.96022        -0.618972      0.713847      0.701165
Ti      13.40557      1.84752     10.99734         0.308448      0.539464      0.755321
Ti      13.36787     13.26953     11.03556         0.413480      0.610354      1.176247
Ti       1.83900      5.74233      2.26028         0.414889      0.619432      2.238475
Ti       1.92448      5.82233     15.36069         0.340603     -1.164949      0.543902
Ti      13.42675      5.79882      2.56356         1.291268     -1.257559      0.217358
Ti      13.46419      5.72281     15.31963        -0.974812      1.219770      0.932224
Ti       1.97845      5.70827      6.85653        -0.954014      0.231426     -0.924924
Ti      13.40808      5.66309      6.60600        -0.188527      1.374019      0.144988
Ti       1.85745      5.73251     11.03162         0.449881     -0.426038      0.830167
Ti      13.39849      5.75197     10.98854         0.289237     -0.469015      3.975467
Ti       1.93626      9.58748      2.14017        -0.505841      0.232875      3.305219
Ti       1.93423      9.61278     15.46159        -0.829392      0.139407      1.114630
Ti      13.39648      9.61750      2.37842         1.794922     -0.363774     -0.648836
Ti      13.41386      9.71229     15.30781         0.307289     -1.576671      0.945258
Ti       1.94071      9.58878      6.65735         0.401182     -0.412592     -0.385251
Ti      13.43522      9.39706      6.68253         1.004613      1.055907      0.104022
Ti       1.91362      9.52034     11.02066         1.010683     -0.127703      1.415744
Ti      13.54993      9.48926     11.08983        -0.879168      1.097318      1.680160
Ti       5.75284      1.91191      2.35440        -0.843472     -0.343667     -0.356303
Ti       5.74347      1.89154     15.39449        -1.628337     -0.233222      2.713623
Ti       5.78168     13.51730      2.40355        -0.989687     -0.597050      0.338113
Ti       5.79938     13.44014     15.39176        -0.465992      0.259625     -1.706328
Ti       5.74751      1.89067      6.66270        -0.307862      0.267625      1.462119
Ti       5.63105     13.39734      6.56835         0.959785      0.321793      0.416000
Ti       5.71092      1.94775     11.01179        -0.314045     -0.784199      0.296912
Ti       5.72247     13.42938     11.11630        -0.023886     -0.009370      0.455533
Ti       5.76668      5.69905      2.32371        -0.960235      0.047285      0.558685
Ti       5.81329      5.72557     15.39254        -1.265498      0.270380      0.466108
Ti       5.73477      5.68082      6.69493         0.066025     -0.288158      1.498079
Ti       5.75921      5.73211     11.01191        -0.312468      0.010269      1.214562
Ti       5.77613      9.53771      2.32584        -0.482622      1.349726      0.309058
Ti       5.69901      9.57854     15.47843         1.112411      0.049755      0.268261
Ti       5.77098      9.48081      6.65326        -0.416768      0.638335     -0.924765
Ti       5.79484      9.63466     11.05515        -0.714086     -1.008188      0.176051
Ti       9.59050      1.89348      2.21706         0.387831      0.475686     -0.753937
Ti       9.59710      2.00400     15.43301         0.286481     -0.762398      1.947136
Ti       9.59619     13.41552      2.45591        -0.747173     -0.676154     -1.061719
Ti       9.59278     13.48913     15.38083         0.228571     -0.272930     -1.488737
Ti       9.55415      1.87099      6.72883         0.012145      0.010786      1.402563
Ti       9.55892     13.49328      6.71177        -0.712979     -1.424208      0.784581
Ti       9.56252      1.89303     11.01165        -0.414580     -0.542640      1.644240
Ti       9.47253     13.46088     11.03898         0.979104     -0.863277      1.819372
Ti       9.62503      5.73018      2.30306        -0.601393     -0.371818      1.288027
Ti       9.54711      5.74501     15.51762         2.046537      0.700605     -1.085862
Ti       9.54515      5.67194      6.77084        -0.284732      1.092070     -2.454609
Ti       9.62538      5.70664     10.99309        -0.386981      0.923207      2.487107
Ti       9.59691      9.56819      2.34702        -0.827397      0.020330      0.715392
Ti       9.63191      9.58309     15.41729        -0.833759      0.061299      0.199005
Ti       9.62213      9.64980      6.77336        -0.660424     -0.110574      1.897213
Ti       9.66396      9.62577     10.92640        -0.284933     -0.207448      2.341287
O       1.86162      1.94266      0.58221        -0.440036     -0.145771     -0.203603
O       1.86594      1.70112     13.70986        -0.071710      0.159266     -1.435314
O       1.87414     13.37136      0.40563        -0.090663      0.072791      0.344480
O       1.84300     13.46603     13.68492         0.216801     -0.116626      0.160808
O      13.45795      1.99851      0.67393        -0.023783      0.659286     -3.029206
O      13.40926      1.74511     13.71127         0.270119      0.415594     -0.371795
O      13.36649     13.48753      0.58142        -0.179949     -0.388131     -0.786340
O      13.22339     13.34848     13.62652         0.672552      0.648505     -0.491558
O       1.91655      1.85277      4.98406        -0.351154     -0.152068     -0.434136
O       1.86087     13.51596      4.95964        -0.422628      0.003295     -0.395340
O      13.28955      1.77978      4.96135         0.354941      0.132967      0.318425
O      13.37305     13.43981      4.92920         0.046090     -0.083117      0.561372
O       1.86394      1.92093      9.25803        -0.323858     -0.333477      0.565376
O       1.79429     13.25217      9.23406         0.380349     -0.051265     -0.331887
O      13.37656      1.80911      9.25996         0.151626      0.236927     -1.028605
O      13.37965     13.27926      9.30238         0.288712      0.202202     -1.632252
O       1.88711      5.78926      0.54445        -0.086962     -0.404548     -1.674764
O       1.83789      5.69940     13.61565         0.270132      0.277685      0.178564
O      13.54217      5.70107      0.81845        -0.560880     -0.310892     -1.649875
O      13.43334      5.74175     13.61888        -0.220375     -0.139714     -1.333590
O       1.81952      5.77282      5.13628         0.674360     -0.241918     -0.689434
O      13.36093      5.80691      4.89688         0.608743     -0.305675     -1.033089
O       1.68929      5.73682      9.30602         0.454289     -0.145028     -1.102414
O      13.41023      5.61380      9.33852        -0.113732      0.288067     -3.080728
O       1.81552      9.62304      0.46174         0.109963     -0.086235     -2.141768
O       1.97412      9.66901     13.75082        -0.091292     -0.236741     -0.783636
O      13.49053      9.61105      0.61631        -0.536786     -0.269513      0.036816
O      13.40991      9.60005     13.60291        -0.054275     -0.189196     -0.940208
O       1.95747      9.56212      4.88444        -0.250998     -0.287473      0.669084
O      13.53503      9.56561      4.93861        -0.549471     -0.092895     -0.526592
O       1.99504      9.41016      9.30109        -0.415553      0.494784     -0.588015
O      13.51795      9.56568      9.38200        -0.165498     -0.280013     -1.642796
O       5.66840      1.93032      0.62161         0.525700     -0.164928     -0.747050
O       5.50916      2.02888     13.75010         0.368936     -0.238029     -2.969666
O       5.80555     13.48772      0.67012         0.183595     -0.309613     -0.878757
O       5.62085     13.41516     13.58385         0.308655      0.086748      0.897515
O       5.62227      1.91538      4.92793         0.233809      0.169360     -0.563802
O       5.60466     13.51715      4.85582         0.135532     -0.142344     -1.029025
O       5.80208      1.82483      9.26114        -0.393799      0.204730     -0.016298
O       5.64104     13.29492      9.35505         0.282478      0.233708     -0.602475
O       5.66178      5.53724      0.59717         0.351964      0.710253     -0.512112
O       5.72145      5.88327     13.66863         0.403211     -0.629793     -0.273147
O       5.71202      5.64065      4.96600        -0.004875     -0.054104     -1.178972
O       5.89932      5.83722      9.31550        -0.236297     -0.337252     -0.968330
O       5.76519      9.73077      0.58247         0.026245     -0.165624     -0.957074
O       5.94126      9.51092     13.75646        -0.642240     -0.003158     -0.691410
O       5.73092      9.42626      4.90246         0.153353      0.212527     -0.161178
O       5.64605      9.54446      9.31965         0.548549      0.283994     -0.945841
O       9.62959      1.95864      0.39910        -0.174731     -0.291338      1.416085
O       9.48065      1.96461     13.73057        -0.009022      0.442291     -1.881092
O       9.56535     13.31391      0.68993         0.082299      0.191709     -0.146256
O       9.64688     13.49275     13.62686        -0.120020     -0.206139      0.355219
O       9.49460      1.82970      5.03138         0.087529      0.090072     -1.589945
O       9.34973     13.43579      5.01270         0.919920      0.313997     -1.883492
O       9.37193      1.89030      9.31568         0.868989     -0.089683     -1.245200
O       9.56861     13.47824      9.34517        -0.261997      0.181042     -1.863083
O       9.44867      5.78825      0.60421         0.573609     -0.087889     -1.032209
O       9.71075      5.59114     13.73518        -0.655438      0.075446     -0.196018
O       9.29016      5.68619      4.94043         0.566921     -0.109760      1.065729
O       9.62162      5.60632      9.30628        -0.061072     -0.056641     -2.832449
O       9.58967      9.71421      0.63534         0.303533     -0.019987     -1.489211
O       9.51731      9.64267     13.69256         0.350383     -0.686389     -0.472487
O       9.43953      9.52426      5.11724         0.460979      0.003627     -2.297248
O       9.65187      9.68363      9.22588         0.042355     -0.515734     -1.421995
O       3.74491      1.75605      2.65991        -0.690700      0.639670      0.355787
O       3.80454      1.79731     15.89608        -0.312545      0.167642     -0.189605
O       3.70129     13.53313      2.66295         0.579341     -0.269686      0.117130
O       3.88461     13.44082     15.85852        -1.217651      0.176495     -0.200139
O      15.23284      1.80270      2.87232         1.359050      0.721877     -0.297068
O      15.33154      1.97695     15.83289        -0.982289     -0.450548      0.193429
O      15.34836     13.38537      2.54490        -1.421617     -0.031895      0.690402
O      15.25641     13.43504     15.78612         0.230326      0.265000     -0.319996
O       3.76818      1.89380      7.16022         0.544154     -0.335407     -0.072899
O       3.83915     13.35357      7.02840        -1.499164      0.438290      0.386733
O      15.34641      1.89475      7.09458        -1.750721     -0.231194      0.086042
O      15.26470     13.24260      7.13239        -0.297119      0.525455     -0.227144
O       3.75687      1.82617     11.46884        -0.529621      0.391299     -0.057254
O       3.83702     13.25441     11.45044        -1.122391      0.318989      0.007078
O      15.29861      1.92094     11.57362         0.311439     -0.732986     -0.371355
O      15.31629     13.28860     11.54230         0.315573      0.676827     -0.557291
O       3.81355      5.71891      2.79163        -0.134933      0.233250     -0.086277
O       3.86986      5.67530     15.78821        -0.714205      0.468379     -0.046328
O       0.01725      5.64797      2.79191        -0.407797      0.440940      0.312412
O      15.34122      5.78362     15.79581         0.386813     -0.338454     -0.107121
O       3.85527      5.67983      7.29219        -0.017369     -0.261594     -0.430515
O      15.34964      5.68889      7.15141        -0.675597      0.154102     -0.053826
O       3.77552      5.81533     11.31487         0.298755     -0.401894      0.307936
O      15.35909      5.82110     11.52644        -0.937764     -0.177783     -0.103725
O       3.78986      9.46480      2.63201         0.302029      0.651446     -0.009944
O       3.81822      9.61246     15.84910        -0.031598     -0.034628      0.083196
O      15.32440      9.77343      2.75044        -0.160609     -0.944993      0.136086
O      15.24233      9.56295     15.80328         0.893651     -0.013433     -0.147788
O       3.89375      9.47597      7.06804        -0.725699      0.425850      0.204646
O       0.03801      9.45513      7.08117        -0.536901      0.076086      0.047416
O       3.87139      9.45591     11.43997        -0.490064      0.776910      0.414273
O       0.05327      9.46813     11.59711        -0.069266      0.527406     -0.559586
O       7.68799      1.82278      2.70409         0.180818      0.337167     -0.031733
O       7.58296      1.93045     15.77353         1.426079      0.226012      0.109281
O       7.60135     13.46257      2.88114         0.841861     -0.035834     -0.253300
O       7.71637     13.46859     15.66212        -0.520236     -0.288532      0.797481
O       7.63261      1.84039      7.08181         0.136583      0.257252     -0.066719
O       7.61305     13.43643      6.98636        -0.403388      0.141200      0.801352
O       7.61972      1.75483     11.43720         0.076595      1.310690      0.159231
O       7.59949     13.44371     11.47848         0.402991      0.008060     -0.059731
O       7.61804      5.69963      2.77069         0.210729      0.098411     -0.281510
O       7.71247      5.87831     15.84440        -1.561856     -0.537150     -0.109150
O       7.59211      5.48979      7.13604         0.592493      1.071539      0.069249
O       7.69821      5.71013     11.44099        -0.104640     -0.417710      0.381844
O       7.71992      9.61789      2.58045        -0.413368     -0.612035      0.667502
O       7.66448      9.56278     15.88437         0.238185      0.386458      0.182135
O       7.62957      9.53571      7.18954         0.562861      0.251717     -0.032722
O       7.68378      9.54503     11.49904         0.656161     -0.300619     -0.455188
O      11.44432      1.98042      2.74859        -0.829641     -0.342538     -0.256444
O      11.51552      1.95792     15.64800        -0.467561      0.420485      0.750552
O      11.45135     13.33729      2.85813         0.241085      0.120114     -0.151358
O      11.51392     13.47999     15.83026        -0.495112     -0.087058      0.477006
O      11.49869      1.80652      7.07869        -0.232309      0.330531      0.559217
O      11.47819     13.39228      7.06011         0.461914      0.077985      0.086028
O      11.53934      1.82859     11.43052        -1.309469      0.683953     -0.167031
O      11.54347     13.43346     11.41130        -0.992142     -0.101045      0.054771
O      11.54199      5.70194      2.91187        -1.263518     -0.020124     -0.747475
O      11.46934      5.80582     15.83866         0.976756     -0.460498      0.508034
O      11.46891      5.71418      6.83572        -0.312799     -0.168321      1.265294
O      11.50041      5.58560     11.34258         0.368370      0.294344      0.532961
O      11.47591      9.46010      2.78273         0.332194      0.839120      0.131554
O      11.54423      9.62685     15.87044        -0.495743     -0.527584     -0.226836
O      11.59073      9.50006      7.24494        -1.458268     -0.139605     -0.777797
O      11.54127      9.56518     11.65166        -0.900382     -0.228105     -1.239851
O       1.77891      3.88836      2.79077         0.667615     -1.762915     -0.249484
O       1.90070      3.69097     15.73233         0.042552      2.094156      0.143874
O       1.66297     15.32762      2.67944         0.836825     -0.042018     -0.327302
O       1.78984     15.28327     15.95974         0.091483      0.466828     -0.613954
O      13.37874      3.78057      2.97435         0.294698      0.274111     -0.423352
O      13.35189      3.87980     15.77548         0.537692     -0.450412      0.172741
O      13.20302      0.03664      2.55515         0.403280     -1.217069      0.778838
O      13.39299      0.03180     16.03436        -0.233150      0.061995     -0.973226
O       1.83970      3.71052      7.14122         0.448162      1.413594      0.294687
O       1.73574     15.28782      7.19012         0.531053     -0.114248     -0.169736
O      13.33607      3.86246      7.09503         0.169646     -1.593026      0.038754
O      13.39754     15.29070      7.11233         0.263462      0.065443      0.141244
O       1.84827      3.80422     11.47910         0.034292     -0.239180      0.118689
O       1.83173     15.29087     11.33844        -0.064938     -0.694208      0.251165
O      13.52071      3.78741     11.44553        -0.425745      0.198493      0.251552
O      13.36626     15.34147     11.34549         0.881140     -0.628573      0.301909
O       1.79416      7.72105      2.66464         0.040634     -0.771660     -0.021187
O       1.98290      7.63457     15.81883        -0.387173      0.281342     -0.371771
O      13.46702      7.61038      2.75326        -0.129334      1.773126      0.373891
O      13.37951      7.63871     15.80123        -0.058684      0.048468     -0.014313
O       1.96422      7.60741      7.13790        -0.145185      0.352563      0.289143
O      13.37471      7.56953      7.07706         0.180927     -0.171235      0.497044
O       1.91171      7.63602     11.55679        -0.309036      0.341156     -0.232329
O      13.33154      7.70161     11.44711         0.049436     -2.133408      0.202820
O       1.89327     11.49423      2.81476         0.202599      0.843231     -0.787638
O       1.78462     11.50684     15.88257         0.713207      0.365870     -0.692281
O      13.31850     11.46498      2.71836        -0.159339      1.106272      0.309529
O      13.35408     11.53700     15.72054         0.094831      0.562227      0.232007
O       1.87763     11.42696      6.95597         0.168904      0.772424      0.547799
O      13.36833     11.31866      7.15456         0.869931      1.276967     -0.663160
O       1.90363     11.46868     11.57323         0.182255     -0.595678     -0.674279
O      13.37459     11.39984     11.43428         0.409423      0.721420      0.077620
O       5.63750      3.75594      2.71776         0.351308      0.755238      0.545869
O       5.68737      3.82510     15.89461         0.812558      0.366614     -0.647961
O       5.65810      0.02862      2.78853         0.656823     -0.466179      0.151796
O       5.80039     15.31824     15.83204        -0.154031      0.305407     -0.092345
O       5.69127      3.78080      7.26387        -0.145614     -0.566877     -0.580802
O       5.71564     15.33908      7.02828        -0.210449     -0.212952      0.229320
O       5.55104      3.77805     11.44475         0.775746      0.618896     -0.063419
O       5.62249     15.35312     11.41153         0.233169     -0.389920      0.250802
O       5.72857      7.73184      2.66076         0.304532     -2.167356      0.132676
O       5.74166      7.66402     15.93497        -0.270831     -0.370065     -0.189003
O       5.73992      7.61641      6.98546         0.468498     -0.887509      0.603125
O       5.74061      7.61647     11.47462         0.433313      0.317863      0.238610
O       5.71250     11.49399      2.85297        -0.062649      0.417065     -0.494677
O       5.64856     11.55043     15.70992         0.689205     -0.581253      0.505673
O       5.72826     11.47717      6.95756        -0.040993      0.016246      0.264486
O       5.86241     11.44660     11.53026        -0.714718      0.393467     -0.010559
O       9.51617      3.83801      2.69755         0.062950     -0.836762      0.046754
O       9.52445      3.92627     15.95292         0.145636     -1.248332     -0.472746
O       9.56055     15.30347      2.70640         0.279836      0.713650      0.102194
O       9.62267      0.02636     15.71846        -0.251501      0.492731      0.710732
O       9.60117      3.80336      7.09142        -0.012891     -1.036700      0.527389
O       9.60455     15.32205      7.18217        -0.189949      0.413040      0.115915
O       9.56728      3.78084     11.43380        -0.149355     -0.782531      0.327636
O       9.46599     15.29260     11.52017         0.746862      1.299238     -0.249276
O       9.70889      7.58003      2.78416        -1.116815      0.743458     -0.206712
O       9.64875      7.70125     15.95540        -0.221745      0.227153     -0.325920
O       9.53721      7.57282      7.09306         0.026888      0.560079      0.737284
O       9.66900      7.64230     11.22189         0.067797     -0.015247      0.506825
O       9.48122     11.45666      2.86841         0.943027      0.314983     -0.078374
O       9.60733     11.50495     15.75837        -0.008552      0.088543      0.599555
O       9.50320     11.56286      7.13489         0.514292     -0.729452     -0.247332
O       9.56984     11.46606     11.45094        -0.018375      0.564490     -0.105947
