  # total energy = -7879.14008244 
CRSYTAL
PRIMVEC
    15.2000000000000000    0.0000000000000000    0.0000000000000000
     0.0000000000000000   15.2000000000000000    0.0000000000000000
     0.0000000000000000    0.0000000000000000    17.000000000000000
PRESSURE
7.81704 7.90911 2.71811 0.241906 0.133726 -0.000627
PRIMCOORD
320 1
Pb       3.83444      3.78445      4.22492        -0.088763      0.297548     -0.156103
Pb       3.61083      3.72994      0.05757         0.828948      0.454568     -0.278874
Pb       3.84890     15.07710      4.29550        -0.045610      0.078584     -0.650197
Pb       3.80091     15.18111      0.02754        -0.004297     -0.123254      0.279401
Pb      15.12163      3.81498      4.27536        -0.085954     -0.333309     -0.802139
Pb      15.11195      3.73832     16.98283        -0.408053      0.015844      0.058646
Pb      15.19216     15.11097      4.12336         0.420858      0.360171      0.514335
Pb      15.19927      0.03493     16.95325        -0.432068      0.042813     -0.254656
Pb       3.65428      3.67751      8.56311         0.081449      0.704586     -0.861134
Pb       3.73272      0.09212      8.32173         0.174514     -0.568249     -0.193404
Pb      15.04192      3.82208      8.37202        -0.201871      0.125134      0.483199
Pb       0.15782      0.03186      8.57959        -0.702764     -0.501021     -0.411328
Pb       3.76101      3.80688     12.84939         0.036633      0.299877     -0.289683
Pb       3.79776     15.08572     12.62461         0.025815      0.363883      0.359828
Pb       0.03723      3.58287     12.81606        -0.206079      0.474238     -0.493402
Pb      15.14405     15.08632     12.60969         0.226512      0.169583      0.171182
Pb       3.72957      7.57562      4.19447         0.286826     -0.020899      0.219637
Pb       3.82604      7.52716      0.12137         0.251264     -0.160499     -1.097062
Pb       0.02197      7.46008      4.18727        -0.538694      0.186369     -0.460955
Pb       0.16443      7.64477      0.09858        -1.037487     -0.371166     -0.234623
Pb       3.70132      7.53609      8.55228         0.258852     -0.265677     -0.658728
Pb       0.01923      7.63721      8.52094        -0.849359     -0.585605      0.216891
Pb       3.82835      7.72080     12.81525         0.147300     -0.517293      0.062015
Pb      15.15982      7.69038     12.75850        -0.135168     -0.851278      0.585813
Pb       3.86604     11.38781      4.21251        -0.300602      0.045280     -0.187711
Pb       3.68833     11.37892     16.84967         0.674429     -0.279029      0.816983
Pb      15.15417     11.31065      4.24701         0.514217      0.552607     -0.247670
Pb      15.18900     11.41940      0.03177        -0.171334     -0.342151     -0.093631
Pb       3.81241     11.31953      8.37464         0.001842      0.553171     -0.225311
Pb      15.14743     11.33332      8.48330        -0.330666      0.600849      0.072641
Pb       3.84994     11.38363     12.70043        -0.034561      0.092547      0.044760
Pb       0.00328     11.52668     12.53307         0.609142     -0.509979      1.098917
Pb       7.63777      3.79807      4.22397        -0.478517      0.292290     -0.047649
Pb       7.58885      3.77560     16.93076        -0.131168     -0.203182      0.606562
Pb       7.60151      0.11159      4.26238        -0.445200     -0.634229     -0.436319
Pb       7.51271      0.03484     16.99595         0.330462     -0.300028     -0.079235
Pb       7.50933      3.87055      8.47755        -0.059047      0.003347     -0.275214
Pb       7.52941     15.19303      8.45798         0.226344     -0.313857     -0.264729
Pb       7.54623      3.67267     12.66350        -0.008750      0.550946      0.055920
Pb       7.67777      0.07885     12.66515        -0.407500     -0.441834      0.381229
Pb       7.45880      7.64813      4.39993         0.080015     -0.468668     -0.399604
Pb       7.56483      7.42990     16.93236        -0.309333      0.718072      0.554785
Pb       7.63378      7.53995      8.59707        -0.020761     -0.227380     -0.674487
Pb       7.76674      7.53930     12.85068        -0.619496      0.105936     -0.701508
Pb       7.67549     11.43067      4.13351        -0.188898      0.190194      0.668723
Pb       7.64212     11.30698     16.96632        -0.551430      0.283392      0.288279
Pb       7.57545     11.27439      8.36261        -0.043996      0.654555     -0.062594
Pb       7.60857     11.28641     12.78469        -0.092627      0.235571     -0.182571
Pb      11.45657      3.65732      4.29989        -0.317167      0.531348     -0.366546
Pb      11.44391      3.91950     16.99446        -0.124414     -0.784306      0.068019
Pb      11.29913      0.01663      4.26631         0.377129     -0.173197      0.029359
Pb      11.29340     15.17616     16.93605         0.405946      0.298807     -0.356669
Pb      11.30445      3.74220      8.48557         0.360339      0.101393     -0.130781
Pb      11.35525     15.14202      8.61395         0.075985     -0.132336     -0.489332
Pb      11.46036      3.80691     12.73543        -0.041555     -0.182763     -0.246038
Pb      11.33858     15.17500     12.84613        -0.167752     -0.222221     -0.180109
Pb      11.37841      7.58231      4.32589        -0.060840     -0.061691     -0.747465
Pb      11.34213      7.54246      0.06099         0.187871      0.134172     -0.102304
Pb      11.40534      7.65028      8.34250         0.027309     -0.181184      0.040332
Pb      11.34986      7.52776     12.62093         0.118807      0.189944      0.967171
Pb      11.43601     11.51207      4.24641        -0.263965     -0.374181     -0.238249
Pb      11.30460     11.28390      0.12255         0.212268      0.129588     -0.494016
Pb      11.34517     11.34406      8.53278         0.142145      0.414352     -0.627568
Pb      11.49515     11.37573     13.00300        -0.229681      0.142076     -0.291937
Ti       1.85970      1.92875      2.26280        -0.633777     -0.332367     -0.027115
Ti       1.91241      1.86551     15.04864        -0.656066      0.100532     -0.697731
Ti       1.97925     13.27022      2.09794         0.338453      0.371387      1.068756
Ti       1.96147     13.26254     14.92602        -1.995447      0.529763     -0.831425
Ti      13.22369      1.87078      2.25635         0.868078      0.425658     -0.459851
Ti      13.23791      1.90223     14.93384        -0.304249     -0.656194      0.951588
Ti      13.38133     13.32320      2.15418        -0.375186      0.131049      0.005724
Ti      13.38348     13.18302     15.05642        -1.624146      1.139690      0.061919
Ti       1.73595      1.93033      6.32198         1.433417     -0.732438     -0.303738
Ti       1.83238     13.25172      6.45556         0.709508      0.323528      1.000986
Ti      13.23532      1.82869      6.51932        -0.901860      0.103877      0.345552
Ti      13.30774     13.30248      6.43120        -0.092311      0.007611      1.830105
Ti       1.89462      1.89699     10.73070        -1.118305      0.154855      0.082654
Ti       2.00161     13.26585     10.63331        -1.661476     -0.200138      0.009068
Ti      13.21883      1.87887     10.71752         0.490625      0.623990     -0.978889
Ti      13.20574     13.29043     10.80010         0.464260      0.214856     -1.647172
Ti       1.86090      5.64160      2.20145        -0.617416     -0.157957      1.888124
Ti       1.84317      5.64120     15.00673         0.582012      0.642439      0.552413
Ti      13.19026      5.67589      2.19545         0.523042      0.152351      0.849123
Ti      13.29960      5.75147     14.91864         0.045739      0.136495      0.389564
Ti       1.76714      5.68788      6.40414         1.694707     -0.245599     -0.028980
Ti      13.22758      5.68288      6.35764        -0.488302     -0.034031      1.020785
Ti       1.87452      5.73610     10.70012        -0.599103     -0.992628      0.159134
Ti      13.27726      5.74503     10.74554         0.857298     -1.206980     -1.711072
Ti       1.82006      9.44988      2.30142         1.197368      0.945711      0.232626
Ti       1.83454      9.45894     15.01102         0.172152     -0.219360     -0.211052
Ti      13.24370      9.52010      2.31143        -0.172352     -0.673783      0.750106
Ti      13.25284      9.44244     15.11498        -0.035731      0.003638     -1.493608
Ti       1.75312      9.43303      6.47687         1.350476      1.293222     -1.261195
Ti      13.30293      9.48744      6.33886        -1.169341      0.538981      1.449144
Ti       1.90423      9.40794     10.73660        -0.245944      1.533222      0.772923
Ti      13.25941      9.49024     10.81997         0.516624      0.166679     -0.337423
Ti       5.64310      1.89856      2.13703         0.251317     -0.268877      0.773631
Ti       5.64447      1.88224     15.01110         0.788586     -0.498428      0.160053
Ti       5.81232     13.24842      2.22476        -1.178685      1.022964     -0.581458
Ti       5.65977     13.31642     15.01654         0.948432     -0.523921     -0.323068
Ti       5.61280      1.95880      6.33796         0.308651      0.025594      0.769429
Ti       5.68668     13.34305      6.42509         0.444852     -1.104561      0.352077
Ti       5.56965      1.93007     10.64208         1.803799      0.487710      0.032104
Ti       5.73720     13.28650     10.68194         0.435718      0.692550     -1.064264
Ti       5.67652      5.69085      2.23184         0.020029      0.205790     -1.505209
Ti       5.75829      5.59308     14.93191        -2.163356      0.849279      0.512562
Ti       5.62739      5.73246      6.58286        -0.045191     -1.068305     -0.454042
Ti       5.63553      5.76350     10.84307         0.516919     -1.145782     -0.259607
Ti       5.67690      9.48223      2.23912        -0.324962      0.209505     -0.279455
Ti       5.72107      9.51598     14.99963        -0.497331     -0.542430     -0.583041
Ti       5.60798      9.41134      6.43378        -0.042240      1.104064     -0.448572
Ti       5.68400      9.48941     10.66901         1.029445     -0.004240      0.879793
Ti       9.45727      1.88234      2.23209         0.315095      0.586957     -1.828034
Ti       9.43792      1.91162     14.96389         1.006152     -0.500281      0.277299
Ti       9.58195     13.30747      2.22748        -0.704462     -0.047425      0.487838
Ti       9.46680     13.27104     15.06038         0.611462      0.582111     -1.266558
Ti       9.40672      1.91831      6.50511         0.666819     -0.347253      1.569955
Ti       9.52114     13.28729      6.46735        -0.449871      0.282837      0.041889
Ti       9.42520      1.92541     10.68880         0.572977     -1.508993      0.152669
Ti       9.45095     13.25634     10.81968         1.052083     -0.069746     -1.335950
Ti       9.40059      5.66169      2.25986         0.995359      0.553677      0.673242
Ti       9.52097      5.64549     14.98737         0.019454      0.369252     -0.910901
Ti       9.50932      5.66733      6.37768        -1.491992      0.413587     -0.199758
Ti       9.51088      5.66988     10.76197        -1.060601     -0.874624      0.285722
Ti       9.42527      9.39588      2.33383         0.721594      0.480472      0.052376
Ti       9.43856      9.45254     14.99046         1.233897      0.659183      0.567801
Ti       9.43592      9.49124      6.36680         0.645517     -0.349069      0.049413
Ti       9.51848      9.47521     10.69665        -1.006375      0.712993     -0.980444
O       1.78688      2.03866      0.40945         0.055761     -0.306086      0.218204
O       1.90941      2.02937     13.25090        -0.023931     -0.625782     -0.070822
O       2.06185     13.28506      0.32580        -0.657907     -0.099044      0.012766
O       1.90588     13.35326     13.10437         0.229121     -0.185198      0.641576
O      13.34354      1.95491      0.47283        -0.157300     -0.150006     -0.460873
O      13.19971      1.88450     13.16882         0.249203      0.229273     -0.792347
O      13.36955     13.20020      0.38270        -0.058047      0.404753     -0.364242
O      13.32789     13.15236     13.23139        -0.128972      0.073319     -0.477874
O       1.75777      1.81160      4.55238         0.489334      0.530250     -0.000831
O       1.86197     13.31932      4.72838         0.223640     -0.120206     -1.549746
O      13.16317      1.87861      4.74276         0.029663     -0.017775     -0.551444
O      13.30892     13.38080      4.70248         0.048458     -0.301153     -1.117290
O       1.92685      1.81017      8.92632        -0.196126      0.396424      0.057448
O       1.98106     13.36089      8.85182         0.008638     -0.010872      0.194434
O      13.32048      1.90981      8.89001         0.157158     -0.022987      0.546789
O      13.10895     13.31925      9.01524         0.276147     -0.287115     -0.256380
O       1.91212      5.63040      0.47810        -0.054418      0.059706     -1.707769
O       1.80662      5.64621     13.27193         0.061162      0.183621     -1.214603
O      13.13846      5.71987      0.42662         0.344506     -0.112470     -0.381202
O      13.18005      5.70936     13.11112         0.202537      0.187997      0.290690
O       1.86468      5.68677      4.61176        -0.046048      0.223032      0.544176
O      13.13633      5.61686      4.60396         0.316280      0.056165     -0.028210
O       1.86089      5.66835      8.89458         0.227695      0.344684      0.425478
O      13.31629      5.80183      8.87133        -0.268618     -0.185203      0.926068
O       1.82799      9.41053      0.53066         0.462275      0.394818     -1.090538
O       1.79619      9.35543     13.23135         0.252021      0.015397      0.129602
O      13.28437      9.55945      0.57800        -0.259116     -0.067384     -1.490386
O      13.27448      9.52947     13.23840         0.011721     -0.222931      0.344117
O       1.77650      9.51030      4.63421        -0.018608     -0.169689      0.792977
O      13.33586      9.61448      4.61277         0.116737      0.018505     -1.331972
O       1.82716      9.42799      8.99942         0.097578      0.025905     -1.462853
O      13.42771      9.45758      9.06167        -0.565149     -0.220196     -0.375845
O       5.61051      1.95038      0.36638         0.352539     -0.374784     -0.253777
O       5.71701      1.88971     13.24237        -0.343504     -0.228382     -0.487742
O       5.72417     13.24175      0.42006         0.034205      0.118187     -0.059819
O       5.60462     13.35763     13.23995        -0.164189      0.226248     -0.675162
O       5.77457      1.92739      4.57321        -0.355594      0.064970     -0.331934
O       5.62984     13.43441      4.63983         0.423354     -0.613054     -0.072477
O       5.50317      2.12133      8.86774         0.387458     -0.473892     -0.223722
O       5.81102     13.22734      8.87977        -0.316722      0.057852      0.613747
O       5.78002      5.71596      0.35672        -0.554255      0.027221      1.438747
O       5.65752      5.59019     13.13547         0.265355      0.578695      0.875384
O       5.63672      5.75838      4.81609         0.097001      0.032901     -1.573745
O       5.71121      5.65663      9.03196        -0.248428      0.158511     -0.583192
O       5.73204      9.55226      0.44533        -0.267227     -0.112868     -0.226354
O       5.77835      9.45477     13.17752        -0.105600      0.127627      0.084830
O       5.49278      9.48022      4.62940         0.475182     -0.379166      0.592799
O       5.72876      9.49917      8.90225        -0.239812      0.023038     -0.475312
O       9.53438      1.91805      0.43119        -0.120381     -0.220097      0.331833
O       9.36488      1.83233     13.17982         0.541456      0.178721     -0.273212
O       9.49236     13.33793      0.47198        -0.051993     -0.030972     -1.076445
O       9.58856     13.27979     13.21971        -0.383565     -0.285203      0.418136
O       9.43526      2.03792      4.75902         0.149670     -0.392669     -1.727121
O       9.57331     13.34137      4.67040        -0.091746     -0.241030     -0.298492
O       9.42938      1.82649      8.92497        -0.190151      0.081020     -0.684482
O       9.61827     13.32177      8.97013        -0.467352     -0.077824      0.417305
O       9.38554      5.83118      0.46589         0.248405     -0.309836     -0.609724
O       9.50193      5.61788     13.18428         0.054780      0.335682      0.127107
O       9.46271      5.57421      4.58833        -0.074309      0.231891      0.222375
O       9.49606      5.62202      9.01497        -0.320263      0.382211     -0.676362
O       9.45117      9.38172      0.53560         0.002086      0.334611     -0.207121
O       9.41026      9.54626     13.22629         0.181895      0.057409     -1.090350
O       9.67596      9.58416      4.59856        -0.834152     -0.066587      0.256087
O       9.52346      9.46913      8.85982        -0.171416     -0.216497      0.714227
O       3.80190      1.97724      2.46234        -0.877907      0.383781      0.409541
O       3.81892      1.93398     15.39370        -1.168315     -0.229377     -0.072528
O       3.90626     13.30041      2.57380        -1.270298      0.103290      0.094296
O       3.71244     13.24545     15.33621         1.759528     -0.098016     -0.039445
O      15.10848      2.03923      2.63944         1.332694     -0.657234     -0.159811
O      15.13379      2.04059     15.29686         0.788693     -0.610744      0.089610
O       0.07109     13.34146      2.47275         0.513948     -0.264870     -0.014855
O      15.19491     13.33827     15.30526         0.572834     -0.128481      0.416890
O       3.71446      1.87260      6.66349         0.033386      0.579296      0.201578
O       3.82847     13.30654      6.79387        -0.769142     -0.454850      0.135068
O      15.13716      1.95396      6.68742        -0.251141      0.027738      0.706116
O      15.19802     13.27045      6.83274        -0.989188      0.152503      0.298642
O       3.78189      1.96712     11.02024        -1.247348      0.269450      0.519450
O       3.80537     13.27288     11.12340         0.382115     -0.022592     -0.266567
O      15.18324      1.82031     11.10048         0.218508     -0.031183      0.169018
O       0.02193     13.35870     10.91449         0.004721      0.099416      0.644197
O       3.76380      5.75827      2.59777         0.515626     -0.333871     -0.200055
O       3.77304      5.60201     15.31313         0.813356      0.239026      0.110680
O      15.11135      5.64335      2.60433         0.927231      0.287856     -0.086422
O      15.12852      5.91182     15.31368         0.366025     -0.903980      0.097664
O       3.75533      5.70895      6.82280        -0.813046     -0.171077      0.468763
O      15.10725      5.60440      6.69805         0.127198      0.682369      0.022875
O       3.74712      5.60259     11.22221        -0.177151      0.066070     -0.430197
O      15.15272      5.99514     10.89466         0.832268     -0.106808      0.665526
O       3.77531      9.50369      2.62045         0.095445     -0.150632     -0.239119
O       3.77962      9.62984     15.17619        -0.360798     -0.216505      0.428562
O      15.18068      9.46433      2.54687         0.062246      0.436427      0.536474
O      15.11588      9.41949     15.51783         1.283082      0.146420     -0.300436
O       3.68438      9.57445      6.83531         0.346728     -0.576693      0.106306
O      15.13496      9.51781      6.95193         0.556224     -0.663470     -0.444948
O       3.82758      9.58620     11.07645        -0.131278      0.028035      0.236347
O       0.04561      9.23444     11.15014        -0.733405      0.689840     -0.533486
O       7.55843      1.95926      2.36520         0.631187     -0.227287      0.823843
O       7.59329      1.79391     15.31623        -0.484708      0.135569      0.411331
O       7.60554     13.42290      2.69555         1.131491     -0.243866     -0.228699
O       7.58040     13.40813     15.25295         0.446086     -0.094628      0.429140
O       7.54173      1.90924      6.75519        -0.197000     -0.494102      0.462350
O       7.62615     13.31683      6.85202        -0.352883      0.279183     -0.066978
O       7.54452      1.83105     10.99797        -0.481852     -0.162752      0.189799
O       7.62050     13.47606     11.07705        -1.381011     -0.247304      0.053142
O       7.53475      5.74575      2.55952         0.351768     -0.040920      0.422904
O       7.60377      5.68987     15.36741        -0.175963      0.133467     -0.544570
O       7.57426      5.74223      6.85537         0.297936     -0.211725      0.420043
O       7.57303      5.77837     11.19630         0.382927      0.015880     -0.248505
O       7.55571      9.51341      2.74275         0.359625     -0.202783     -0.134413
O       7.60567      9.57229     15.34240        -0.467196     -0.385434      0.103333
O       7.50638      9.39460      6.58625         0.690620      0.098453      0.404012
O       7.64924      9.30524     11.00734        -1.182506      0.396625      0.378709
O      11.37694      1.94418      2.58461        -0.284503     -0.648090      0.381654
O      11.39445      1.94505     15.29768        -0.535582      0.313285      0.113670
O      11.46124     13.40007      2.51485        -0.105036     -0.360060      0.220329
O      11.40856     13.32280     15.29493        -0.202417     -0.499253      0.454474
O      11.34152      1.86569      6.94745        -0.085326      0.374760     -0.318727
O      11.36879     13.20368      6.77597         0.894037     -0.234318      0.234877
O      11.36055      1.98346     10.93462         0.248421     -0.101861      0.477747
O      11.38390     13.21249     11.10321        -0.136855     -0.612575      0.768102
O      11.35281      5.76994      2.45635        -0.442789      0.026717      0.310788
O      11.35215      5.69288     15.29643        -0.140551      0.350659      0.312589
O      11.31682      5.64324      6.75128         1.196939      0.728076      0.295264
O      11.38197      5.56994     11.05092        -0.223317      0.013531      0.355834
O      11.39492      9.56471      2.63093        -0.187317     -0.069007     -0.209531
O      11.39292      9.49312     15.38361        -1.304025      0.393986      0.316647
O      11.35865      9.44697      6.77695         0.639310      0.325060      0.110570
O      11.34551      9.62764     11.05284         0.755527      0.212705      0.345955
O       1.84715      3.83045      2.66772         0.512373     -0.572508     -0.082459
O       1.92195      3.78506     15.33170        -0.562538     -0.180020      0.361161
O       1.96064      0.05341      2.39575        -0.301443     -0.488614      0.241416
O       1.89797     15.17368     15.30925        -0.058496      0.699228      0.202766
O      13.28650      3.76714      2.57386        -0.658949      0.694039      0.199757
O      13.22565      3.89031     15.32653         0.314572     -0.278919     -0.107334
O      13.46411     15.19183      2.58622        -0.949395      0.157933     -0.357028
O      13.22630      0.00560     15.28357         0.605025     -0.022845      0.300665
O       1.81512      3.83397      6.71048         0.339144     -0.762882      0.294514
O       1.81386      0.01595      6.74459         0.126774      0.287291      0.513721
O      13.16298      3.80807      6.80941         0.385346      0.000568      0.091915
O      13.28453     15.17791      6.79917        -0.048682     -0.407096      0.305397
O       1.72876      3.81731     11.06023         0.302585     -0.193313     -0.071534
O       1.81432     15.16990     11.07320         1.059005      0.600380     -0.142406
O      13.40500      3.79114     11.07396        -0.134825      0.455752      0.095085
O      13.21904      0.00256     11.01724         0.012198     -0.141977      0.697877
O       1.86251      7.53794      2.53546        -0.151721      0.565708      0.258375
O       1.94735      7.55555     15.47137         0.198948      0.957701     -0.060577
O      13.31538      7.57235      2.71813        -0.236738      0.598746     -0.338333
O      13.17864      7.62366     15.47996        -0.019696     -0.786918     -0.344785
O       1.89015      7.59119      6.82035        -0.411069     -0.191023      0.090371
O      13.26838      7.66703      6.58285         0.031360     -2.079417      0.625093
O       2.14381      7.60411     11.00210        -0.158526     -0.902060      0.380918
O      13.05753      7.59209     11.09338         0.280483      0.504152      0.099918
O       2.02427     11.44398      2.48450        -0.710496     -0.686341      0.188062
O       1.75849     11.40180     15.26709         0.182900     -0.676671      0.293825
O      13.37365     11.49790      2.60699        -0.189085     -0.868174      0.186708
O      13.20988     11.32519     15.42778         0.488347      0.880810      0.114476
O       1.77061     11.37608      6.81402         0.485997     -0.472197      0.234550
O      13.35693     11.30103      6.80496        -0.393469      1.643932      0.233985
O       1.82086     11.36970     11.03818         0.410308      0.175443     -0.162155
O      13.54431     11.39446     10.99954        -1.041032     -0.745936      0.160394
O       5.73447      3.85874      2.55326        -0.481086     -0.420319      0.249038
O       5.74505      3.73234     15.35944         0.166627      0.742856     -0.329767
O       5.65583      0.01346      2.60481         0.302367      0.738794     -0.447327
O       5.63140     15.12479     15.47820        -0.280475      1.458698     -0.174148
O       5.74343      3.78404      6.67185        -0.385116      0.070661      0.590200
O       5.58553     15.19785      6.61731         0.673634      0.944539      0.911085
O       5.76546      3.86962     11.14435        -0.363746     -1.616975     -0.278300
O       5.57846      0.04338     10.76292        -0.133233     -0.274608      0.802619
O       5.71380      7.62981      2.56578        -0.269590     -0.605012      0.143635
O       5.62330      7.61319     15.30780         0.253952     -0.516982     -0.051106
O       5.67678      7.56259      6.82510        -0.397883      1.408166      0.667276
O       5.60365      7.62994     10.98605        -0.370103      0.209182      0.464858
O       5.80178     11.41518      2.55673        -0.283576     -0.576431      0.474152
O       5.82323     11.42740     15.18563        -0.549159     -0.138781      0.692909
O       5.76225     11.36653      6.71250        -0.503667     -0.045920      0.395480
O       5.68719     11.46438     11.08689         0.605408     -1.135229      0.176039
O       9.59337      3.82025      2.53214        -0.794394     -0.338772      0.112142
O       9.42776      3.80615     15.33071         0.058331     -0.114249      0.131032
O       9.56897      0.00293      2.53295        -0.451020      0.676568      0.556210
O       9.59933      0.03855     15.29759        -0.347565     -0.501968      0.345793
O       9.46567      3.85190      6.85680        -0.210382     -1.172186      0.276706
O       9.57182     15.19020      6.69981        -0.531368      0.155122      0.375686
O       9.42447      3.70120     11.07299        -0.182086      1.543689      0.207702
O       9.60490     15.15110     11.16653        -0.160572      0.889549     -0.000630
O       9.49931      7.60757      2.78673        -0.256622     -0.493711     -0.345777
O       9.43461      7.66168     15.23140        -0.002292     -2.002556      0.290607
O       9.45584      7.57460      6.67461         0.214858      0.091719      0.417684
O       9.54421      7.54953     11.01144         0.405785      0.547477      0.456190
O       9.48641     11.41814      2.56115         0.013446      0.234108     -0.026915
O       9.45831     11.39825     15.42058         0.314642      0.025486      0.029049
O       9.41497     11.31826      6.78181         0.137236      0.827798      0.202763
O       9.23106     11.38114     11.01162         0.589721     -0.452778      0.172455
