  # total energy = -7862.96670567 
CRSYTAL
PRIMVEC
    15.010000000000000    0.0000000000000000    0.0000000000000000
     0.0000000000000000   15.010000000000000    0.0000000000000000
     0.0000000000000000    0.0000000000000000    16.400000000000000
PRESSURE
16.9903 16.9765 8.05409 -0.020223 -0.233248 -0.038675
PRIMCOORD
320 1
Pb       3.65950      3.58146      4.13391        -0.061500      0.665072     -0.642230
Pb       3.71903      3.75330     16.31301         0.035550      0.578257      0.302251
Pb       3.81691     14.92789      4.19284        -0.208969     -0.177964     -0.735382
Pb       3.81075      0.06609     16.35011         0.187594     -0.198963      0.323923
Pb      14.97024      3.79539      4.26000         0.652133     -0.444454     -1.163245
Pb      14.89486      3.80142      0.05933         0.614920      0.002321      0.014659
Pb      14.93172     14.99967      4.29765         0.309073     -0.129381     -1.158883
Pb       0.04598      0.03939     16.26220        -0.619881     -0.093940      0.107677
Pb       3.75869      3.71701      8.12010         0.093170      0.044223      1.167337
Pb       3.84544     14.99399      8.31364        -0.597646      0.087617      0.587700
Pb       0.07790      3.71532      8.08577         0.016023      0.261470      0.506755
Pb       0.15879     14.95676      8.27742        -0.289516      0.022407     -0.252457
Pb       4.01689      3.71710     12.35319        -0.654529      0.178789     -0.349672
Pb       3.72017      0.00052     12.33795        -0.411749     -0.055803     -0.562714
Pb       0.03898      3.80476     12.27768         0.324181      0.528326     -0.209460
Pb      14.96054     14.98879     12.23225         0.824587     -0.219662      0.388595
Pb       3.62240      7.66059      4.23636         0.722339     -0.305546     -0.963113
Pb       3.77000      7.54550     16.38362        -0.575625     -0.216616     -0.083547
Pb      14.86584      7.56328      4.12859         0.168456     -0.700349     -0.357391
Pb      14.92198      7.46432      0.03643         0.521590      0.041808     -0.493904
Pb       3.68869      7.52618      8.31023         0.626293     -0.227637     -0.225923
Pb       0.02135      7.47993      8.07766        -0.400196      0.061672      0.682128
Pb       3.74322      7.30379     12.40526        -0.436051      0.406029     -0.159212
Pb       0.03111      7.49452     12.23338        -0.162164     -0.810111      0.840398
Pb       3.58561     11.22534      4.03724         0.534079     -0.305682      0.057135
Pb       3.67490     11.32051      0.07125         0.284248     -0.791910     -0.140665
Pb      14.84971     11.17958      4.19333        -0.053224      0.879620     -0.911339
Pb      14.94966     11.29531      0.02591        -0.117722     -0.388835      0.042898
Pb       3.52667     11.19250      8.26037         0.512174     -0.028429     -0.243894
Pb      14.97465     11.15393      8.12558        -0.085875      0.244571      0.336824
Pb       3.68428     11.10193     12.48688        -0.062725      0.223578     -0.796248
Pb      14.96501     11.17913     12.31460         0.403127      0.225566     -0.009795
Pb       7.45235      3.85058      4.28084         0.020711     -0.226832     -0.340091
Pb       7.50748      3.73011      0.17751         0.335843     -0.093544     -0.323308
Pb       7.52033      0.05064      4.27079        -0.212516      0.000844     -0.775686
Pb       7.61015      0.03665      0.00210        -0.338631     -0.165750      0.405718
Pb       7.61802      3.79459      8.17383        -0.665301     -0.328059      0.563566
Pb       7.42925     14.88688      8.32134         0.347355      0.956783      0.145211
Pb       7.58573      3.67501     12.39327        -0.007447      0.393317     -0.088493
Pb       7.52234      0.00817     12.27186         0.055095      0.111448     -0.032739
Pb       7.35559      7.46844      4.20297        -0.481857     -0.311224     -0.253309
Pb       7.49177      7.39184      0.09035         0.406384      0.629709      0.636453
Pb       7.51062      7.44899      8.09342        -0.012101     -0.750242      0.369451
Pb       7.58183      7.51240     12.34882         0.101069     -0.032636     -0.306345
Pb       7.19159     11.20805      4.19994         0.416460      0.688009     -0.688616
Pb       7.37933     11.29911      0.04711         0.649356      0.050287     -0.410694
Pb       7.39076     11.10131      8.23972         0.250722      0.093594      1.000720
Pb       7.51568     11.21539     12.47090         0.254144     -0.073523     -0.316932
Pb      11.37015      3.67761      4.25515        -0.329880      0.309858     -0.957527
Pb      11.36205      3.83637      0.08887        -1.150943     -0.518954     -0.068395
Pb      11.27420     15.00352      4.21846        -0.169225     -0.055615     -0.667490
Pb      11.38170      0.12585     16.35018        -0.459765     -0.161612      0.312026
Pb      11.45298      3.72905      8.25873        -0.916179     -0.239218      0.459310
Pb      11.31916     14.89879      8.20819        -0.698272      0.871151      0.744576
Pb      11.31963      3.74389     12.22690        -0.630141     -0.061658      0.162122
Pb      11.31369     14.86146     12.33894        -0.506129      0.798916     -0.421086
Pb      11.17817      7.50177      4.15628        -0.430437     -0.053649     -0.582777
Pb      11.24322      7.41962      0.11901        -0.940881      0.580655      0.733823
Pb      11.22866      7.52357      8.11460        -0.176194     -0.062297      0.393922
Pb      11.24850      7.44427     12.40499        -0.059282      0.049094     -0.782000
Pb      11.03136     11.31169      4.20309         0.749846      0.233063     -0.856110
Pb      11.12704     11.33477      0.00839        -0.287264      0.013111      0.794876
Pb      11.13495     11.24030      8.21640         0.553621     -0.132175      0.010207
Pb      11.26065     11.13149     12.43721        -0.605044      0.171999     -0.914075
Ti       1.79188      1.90224      1.95180         1.205119     -0.034471      1.610854
Ti       1.94167      1.94489     14.36316        -1.686111     -0.326599     -0.939302
Ti       1.82304     13.12040      2.04313         0.209640      1.113007      0.386305
Ti       1.87425     13.13020     14.50339        -0.611107      0.017965     -2.313022
Ti      13.16326      1.80517      2.16200         0.448623      1.342172     -0.389089
Ti      13.17007      1.95990     14.24092        -0.379178     -0.532487      0.659036
Ti      13.11169     13.10142      1.98356        -0.127887     -0.203682      0.806695
Ti      13.08714     13.08787     14.31620         1.007732      0.458763      2.787146
Ti       1.90271      1.81052      6.20870         0.309197      1.140339     -0.186429
Ti       1.90358     13.15044      6.09888        -0.256464     -1.073084      0.810782
Ti      13.11783      1.86770      6.25059         0.901284      0.452873      0.501703
Ti      13.07029     13.16177      6.28574         0.998865     -1.303372     -1.540043
Ti       1.77036      1.85975     10.21729         2.640269      0.361677      0.713655
Ti       1.88167     13.07126     10.24501        -0.002343      0.444336      0.924338
Ti      13.11649      1.84586     10.23006        -0.655965      1.294510     -0.557515
Ti      13.13797     13.08879     10.21293         0.420342     -0.393402      0.539940
Ti       1.87932      5.66200      2.11874        -0.739650     -1.917516     -0.910920
Ti       1.86392      5.66257     14.47724        -0.893477      0.223311     -0.682476
Ti      13.09430      5.61976      2.05597         0.629014     -1.293402      1.825449
Ti      13.07635      5.68071     14.37615         1.351353     -0.332897     -0.416064
Ti       1.90245      5.65127      6.08731        -0.372921     -0.009771      0.515508
Ti      13.11933      5.59780      6.14280         0.441418      0.641437      0.466005
Ti       1.92495      5.61723     10.14242        -0.240518     -0.168915      2.564890
Ti      13.08950      5.66444     10.18719         0.934135     -1.034254      0.103670
Ti       1.66708      9.31085      2.00269         1.706964      0.265292     -0.179755
Ti       1.76932      9.38054     14.37614         0.224576     -1.088864      0.132639
Ti      12.92392      9.32822      1.97218        -0.100548      1.118501      1.129393
Ti      13.00176      9.41081     14.40650         2.197407     -2.039084     -0.708928
Ti       1.80645      9.38409      6.19030         0.401758      0.303122     -0.542989
Ti      13.02254      9.40797      6.10234        -0.131710     -0.289253      0.316696
Ti       1.88844      9.30733     10.32047        -0.532557      0.274585      0.179478
Ti      13.12001      9.32644     10.28086         0.525916     -0.040411      0.475614
Ti       5.64710      1.87922      2.13659        -0.201296     -0.575363     -0.414667
Ti       5.73631      1.80736     14.44920         0.044916      0.956941      0.046617
Ti       5.56885     13.15546      2.03726         0.129122     -0.268423      0.228291
Ti       5.61081     13.07366     14.36780         0.936738      0.295854      0.739899
Ti       5.58656      1.81315      6.22100         1.408396      0.018877      0.380940
Ti       5.60030     13.01804      6.32154        -0.733325      0.874472     -1.426535
Ti       5.61362      1.86034     10.30098        -0.208166      0.041144     -0.618234
Ti       5.63950     13.02964     10.34249        -0.887977     -0.008466      0.000795
Ti       5.56048      5.57611      2.08569        -0.509481      0.201614      0.984477
Ti       5.77587      5.63858     14.41645        -1.593777     -0.961094      0.107644
Ti       5.51548      5.51904      6.20374         1.140660      1.932400     -0.610919
Ti       5.65542      5.64546     10.23532        -0.159881     -1.336413     -0.887843
Ti       5.52752      9.36710      2.05420        -0.818295     -0.638730      0.902642
Ti       5.64232      9.32950     14.41227        -0.836975     -0.204288     -0.878562
Ti       5.58955      9.33838      6.24809        -1.862555     -1.147975     -0.736505
Ti       5.63931      9.23841     10.37997        -0.177546      1.035590      0.194541
Ti       9.39900      1.88743      2.15026        -0.198177     -0.051658     -0.395409
Ti       9.43187      1.96855     14.40302        -0.205124     -0.136821     -0.518335
Ti       9.31679     13.16020      2.21826         0.587070      0.163219     -1.175004
Ti       9.42355     13.27659     14.38650        -1.443175     -2.083839      0.006363
Ti       9.37043      1.89702      6.22405        -0.490882     -0.101393      0.197880
Ti       9.29732     13.18710      6.24016        -0.012440      0.211635     -0.723407
Ti       9.34766      1.84966     10.26266         0.830459      0.902830     -0.579947
Ti       9.36434     13.07601     10.22788         0.009418      0.207770      0.672478
Ti       9.30845      5.62641      2.20629         0.720098      0.443648     -0.952816
Ti       9.40566      5.76033     14.45739        -0.036583     -1.998806     -0.399892
Ti       9.43875      5.61902      6.13015        -1.020123     -0.218846      0.441584
Ti       9.36590      5.55704     10.26427         0.029345      0.927131     -0.451338
Ti       9.19229      9.47855      2.18417         1.237907     -1.305454     -1.342219
Ti       9.42116      9.41012     14.47110        -2.332973      0.967564     -0.047074
Ti       9.26710      9.46669      6.09787         0.402872     -1.470719      1.343251
Ti       9.40743      9.36072     10.13153        -0.793521     -1.052853      0.440038
O       1.66788      1.91878      0.16574         0.950939     -0.044029     -1.189684
O       1.66914      1.73285     12.51517         0.629372      0.611085      0.542572
O       1.86715     13.00423      0.13399         0.222468      0.425179      1.099311
O       1.79672     13.16164     12.61129        -0.009791      0.015989      0.014398
O      13.11832      1.88528      0.29391        -0.083151     -0.221849      0.209040
O      13.11420      2.02534     12.42548         0.529644     -0.590852      0.205244
O      12.99193     13.16523      0.17170         0.591153     -0.059994      0.746930
O      13.09996     13.02099     12.58629        -0.130158     -0.014755     -2.310848
O       1.88264      1.80912      4.40614         0.376568     -0.200357     -0.187794
O       1.91528     13.06502      4.29442        -0.114962      0.535290     -0.269744
O      13.21020      1.88604      4.42088         0.054305     -0.339400     -0.111426
O      13.09201     13.06931      4.38532        -0.012343      0.086779      0.955000
O       1.92671      1.76575      8.39536         0.079483      0.593892      0.045412
O       1.81929     13.09626      8.40913         0.321988     -0.394035      0.219098
O      13.11420      1.82345      8.34843         0.116918      0.118596      0.571188
O      13.15432     13.11655      8.39908         0.015684     -0.149517     -0.385960
O       1.80033      5.48692      0.22205         0.035517      0.232256      0.451900
O       1.72734      5.73927     12.61580         0.784254     -0.508614      0.007023
O      13.20527      5.69632      0.25126        -0.760526     -0.267085     -0.772673
O      13.01589      5.61461     12.56292         0.017847     -0.289022     -0.465576
O       1.78482      5.67076      4.29254         0.407459      0.350076     -0.109271
O      13.07166      5.56949      4.30652         0.026249      0.361923      0.754818
O       1.82364      5.82350      8.42598         0.406225     -0.591179     -1.585619
O      12.98434      5.64249      8.33433         0.706659      0.424598      0.716772
O       1.76325      9.31283      0.17611         0.227604      0.603878      0.647693
O       1.81996      9.23854     12.51612        -0.064926      0.672595      0.379725
O      12.98097      9.15047      0.16565         0.418158      0.712547      0.683767
O      13.10974      9.32671     12.51554        -0.579603      0.626341      0.360036
O       1.79002      9.28307      4.31008        -0.623907      0.108719      0.239553
O      13.05998      9.46466      4.26734         0.009345     -0.368401      0.494808
O       1.93848      9.31183      8.41727        -0.506740      0.477850      0.298845
O      13.21474      9.35572      8.50972        -0.624041     -0.026447     -1.131544
O       5.74767      1.69548      0.29651        -0.742768      0.670398     -0.420749
O       5.84844      1.85016     12.62771        -0.527389     -0.008826     -0.964155
O       5.51296     13.12574      0.18599        -0.232780     -0.076544      0.594728
O       5.77260     12.97327     12.58369        -0.444326      0.569297     -0.833193
O       5.69157      1.89493      4.39007        -0.571038     -0.373792     -0.652150
O       5.53783     13.06662      4.41700         0.178984      0.157873      0.656129
O       5.48154      1.84254      8.44813         0.366186     -0.404011      0.234311
O       5.64347     13.18251      8.43907        -0.059378     -0.714890     -0.273924
O       5.70630      5.63055      0.25657        -0.252985     -0.513830     -0.124673
O       5.62291      5.65094     12.59849         0.017587     -0.013950      0.040254
O       5.58511      5.50813      4.35967        -0.145560     -0.078212     -0.134293
O       5.58689      5.67404      8.36814         0.409117     -0.146492      0.895216
O       5.48349      9.30343      0.25705         0.448710      0.450665     -0.192815
O       5.60459      9.30362     12.48531         0.416799     -0.013208      0.819189
O       5.59540      9.44976      4.36613        -0.112659     -0.655033      0.732721
O       5.60027      9.24516      8.51401        -0.006291      0.724787     -0.775171
O       9.40404      1.81339      0.24956         0.347477      0.536952      0.583332
O       9.21406      1.88796     12.54538         0.308058     -0.408202     -0.312837
O       9.45019     13.06892      0.33518        -0.362540      0.130156      0.651478
O       9.35831     13.02008     12.56149         0.316320      0.933790     -0.576820
O       9.28378      1.85706      4.33929         0.295187     -0.081000      0.700888
O       9.44020     13.16734      4.34381        -0.184086      0.692603      0.983917
O       9.37336      1.97894      8.40310        -0.036801     -0.125770     -0.014455
O       9.39471     13.17515      8.37189        -0.292026     -0.662456      0.696840
O       9.31740      5.59310      0.25819        -0.276561      0.155897      0.154065
O       9.52949      5.62845     12.61361        -0.526472      0.624213     -0.000616
O       9.44395      5.57617      4.27517         0.169117      0.320166     -0.032787
O       9.26819      5.47331      8.38973         0.697531      0.486341      0.690106
O       9.37890      9.43667      0.31470        -0.641601      0.348357      0.005781
O       9.36018      9.21816     12.61854         0.329474      0.753172     -0.163246
O       9.20402      9.22042      4.34400         0.485607      0.461866     -0.578777
O       9.32155      9.35774      8.26905        -0.045861      0.436726      1.491246
O       3.79030      2.31598      2.18037        -0.257849     -1.215498      0.152621
O       3.78372      1.72901     14.48382        -0.419447     -0.357738      0.451677
O       3.72238     12.86816      2.31977        -1.162164      0.089436     -0.347221
O       3.75027     13.42908     14.46521         0.162414     -0.572920      0.617136
O       0.05952      1.67621      2.41021        -1.726619     -0.945732      0.185511
O      14.97929      2.27415     14.62916        -0.359279     -1.132739     -0.626931
O       0.01663     13.30685      2.37084        -0.707934      0.393169     -0.139367
O      14.94071     12.93554     14.73735         0.431284     -0.255168     -0.426712
O       3.81422      2.13687      6.48062        -1.925971     -0.226131     -0.615880
O       3.76436     12.71906      6.35330        -0.371080      0.578869      0.506561
O       0.10457      1.90630      6.47818        -1.733905     -0.992396      0.007791
O       0.04201     13.18995      6.26873        -1.176685      0.117119      0.517265
O       3.77681      1.92319     10.70838        -0.394778      0.052057      0.003893
O       3.73383     12.80369     10.50694         0.690359      0.502367      0.148247
O       0.00121      1.69620     10.37905        -1.009363     -0.424451      0.258695
O      15.00091     13.30092     10.47147        -0.137270      0.320380      0.140692
O       3.69540      5.29332      2.35359         0.987494     -0.244136     -0.246264
O       3.67973      5.79690     14.68200         1.924968      0.151455     -0.124254
O      14.96024      5.83397      2.31930         0.110847      0.762624      0.262299
O      14.92030      5.35812     14.56769        -0.019419      0.185591      0.331526
O       3.70400      5.36984      6.50986        -0.334403      0.467410     -0.512202
O       0.03723      5.70328      6.44533        -0.922847      0.808774     -0.193030
O       3.81004      5.43825     10.54361        -1.324253     -0.520103      0.250992
O       0.06001      5.87606     10.47726        -1.488272     -0.357304     -0.252580
O       3.65151      9.44248      2.36687        -0.224751      0.274552     -0.232491
O       3.75448      9.09329     14.52258        -0.328828      0.393419      0.202337
O      14.89547      8.93728      2.27468        -0.709717      0.295558     -0.196714
O      14.92190      9.66270     14.64739         0.190535     -0.292874     -0.220369
O       3.68724      9.68366      6.27440         1.203768     -0.408079      0.537787
O      14.93280      9.25658      6.45220         0.183451     -0.028997     -0.479856
O       3.69350      9.49240     10.57192         1.356556      0.925628     -0.118361
O      15.00569      8.97594     10.51666        -0.114386      1.055240     -0.558024
O       7.54059      1.47463      2.24603         0.239710      0.040398      0.445572
O       7.52851      2.00832     14.67587         0.499996      0.647119      0.466518
O       7.42298     13.25561      2.38472         0.696337      0.395305     -0.282305
O       7.47975     12.91120     14.75797         0.413754      0.174685     -0.286713
O       7.45410      1.52221      6.38943         0.485539      0.225287      0.313381
O       7.46592     13.46467      6.37794        -0.036111     -0.023019      0.107040
O       7.50498      1.64873     10.38382        -0.085320      0.018757      0.438316
O       7.54173     13.26712     10.41583         0.738845      0.413402      0.128589
O       7.45426      5.86044      2.35059         0.405199      0.195546      0.184457
O       7.57089      5.31587     14.58978        -0.283185      0.286844      0.190811
O       7.53736      5.78710      6.28953        -0.912962      0.069397      0.167870
O       7.45608      5.87552     10.60341         0.951223     -0.240546     -0.193491
O       7.37827      9.08436      2.38899         0.235350      0.486488     -0.388959
O       7.43692      9.69036     14.67727         1.191979     -0.420212      0.100849
O       7.44764      9.11514      6.45432         0.263761     -0.030726     -0.233786
O       7.50928      9.02069     10.47907         0.193896      0.106581     -0.037024
O      11.32095      2.12447      2.48536        -0.891428      0.043064     -0.422440
O      11.22701      1.56269     14.41093         1.437397     -0.176561      0.394868
O      11.34378     12.74850      2.34222        -1.304307      0.393162      0.222141
O      11.26438     13.43290     14.63004        -0.371649     -0.331688     -0.367154
O      11.27824      2.15822      6.31259        -0.482325     -0.336099      0.048201
O      11.19917     13.05559      6.45552         0.665453     -0.758905      0.124865
O      11.24175      2.08934     10.35973         0.514030      0.085173      0.546241
O      11.29758     12.92576     10.45478        -0.801010     -0.147400      0.344058
O      11.21921      5.36396      2.16805        -0.081083     -0.558482      0.405505
O      11.23310      5.91891     14.75871         0.037749     -0.285822     -0.209121
O      11.30023      5.24960      6.40101        -0.685712      0.975365     -0.365676
O      11.22303      5.31905     10.50899         0.522556      0.497936     -0.555580
O      11.13455      9.80072      2.32134         1.122968     -0.828637      0.163755
O      11.17471      9.16335     14.67750         0.656086     -0.337942     -0.164120
O      11.14328      9.62023      6.52992         0.656181     -0.693188     -0.808394
O      11.24037      9.56631     10.39040        -0.226296      0.370173      0.241106
O       1.59897      3.69820      2.33723        -0.032190      0.872810      0.451696
O       2.05569      3.78275     14.55296         0.263599     -1.040341     -0.146918
O       2.11853      0.03552      2.20231         0.292607     -1.261838     -0.011702
O       1.68692     14.99147     14.57664        -0.321046      1.143515      0.635999
O      13.46820      3.72646      2.47071        -1.072709      0.187912     -0.803411
O      12.78247      3.74503     14.65548         0.156530      0.113001     -0.307065
O      12.85934      0.00493      2.39663         0.375350     -1.211454     -0.051782
O      13.34371     14.96355     14.50838         0.242034      1.512440     -0.092213
O       1.73751      3.81780      6.38124         0.422506     -0.855003      0.334754
O       1.89263     14.99792      6.56791         1.047102     -1.005244     -0.824632
O      13.36127      3.74671      6.46961        -0.305397      0.272222     -0.333956
O      13.04201      0.01774      6.49545         0.171508     -0.702974     -0.516669
O       1.67828      3.72261     10.33045         0.250045      0.620474      0.502356
O       2.08898     15.00511     10.38953        -0.324032     -1.078064      0.571287
O      13.26842      3.74388     10.37560         0.583118      0.475066      0.242424
O      12.98832      0.03612     10.56505        -0.157467     -1.609846      0.108543
O       2.11332      7.43362      2.16224        -0.203098      1.250948      0.465524
O       1.70177      7.54860     14.72726        -0.630927     -0.776951     -0.005517
O      12.67331      7.40717      2.37219         0.695008      1.811481     -0.067552
O      13.29075      7.54373     14.52575         0.054282     -0.918026      0.292464
O       2.14652      7.56815      6.45451        -0.616829     -0.950400     -0.471263
O      12.96322      7.55721      6.38229        -0.146601     -1.144444     -0.173868
O       2.13957      7.49043     10.52718         0.040386     -0.498072     -0.095767
O      12.81982      7.43736     10.52267        -0.047392      0.542639     -0.071053
O       1.52147     11.19686      2.20842         0.461226     -0.056569      0.304208
O       2.10260     11.19715     14.55567         0.292270      0.926115      0.227301
O      13.40240     11.17178      2.15493         0.428402      0.046122      0.025474
O      12.80867     11.17373     14.64222        -0.134192      2.209730     -0.133383
O       1.74848     11.23530      6.48903        -0.746830      0.383168     -0.130142
O      13.25695     11.19637      6.46494        -0.206968      1.350249      0.103550
O       1.65731     11.25238     10.65864        -0.170259     -1.036372     -0.598194
O      13.40370     11.22038     10.51165        -0.282513      0.220344     -0.118844
O       6.02884      3.65757      2.35946        -0.249354      1.098773     -0.455325
O       5.42921      3.76375     14.60645         0.122153     -0.197242      0.208839
O       5.28315     14.94716      2.35802         0.068818      0.804556      0.174703
O       5.85795     14.99958     14.65362        -0.329240     -0.931643     -0.227294
O       5.80167      3.77712      6.49407         0.304515     -2.399700      0.112399
O       5.13497     14.97568      6.42893         1.236363     -0.396888     -0.609287
O       5.74949      3.69786     10.50647         0.367076      0.618689      0.535975
O       5.62355     14.91887     10.55144        -0.870609      0.346215      0.384334
O       5.39415      7.39362      2.38599        -0.291688      0.959709     -0.027395
O       5.88772      7.49104     14.79162        -0.124088     -0.459577     -0.705387
O       5.31207      7.42314      6.32529         0.399128      1.648911      0.140737
O       5.28687      7.41627     10.50035         0.419885      1.278398      0.282530
O       5.62119     11.23589      2.38216         0.665251     -0.327589     -0.493212
O       5.46251     11.18050     14.65217        -1.021317      1.113655      0.194729
O       6.02528     11.17066      6.41427        -0.785462      0.984333      0.304963
O       5.97615     11.24989     10.58044        -0.486124     -1.438353     -0.503493
O       9.00942      3.77409      2.30428         0.478481     -1.009241     -0.042654
O       9.70155      3.74021     14.53010        -0.150700      0.971617      0.657450
O       9.76554      0.00750      2.37206        -0.443553     -0.745874      0.029523
O       9.14613      0.01693     14.65167         0.048088      0.322546     -0.281653
O       9.03890      3.76518      6.41397         0.764484     -1.238488     -0.706295
O       9.66053      0.02570      6.56636        -0.603915      0.263162     -0.864509
O       9.16775      3.77920     10.64855        -0.316316     -1.024237     -0.282878
O       9.66941      0.06126     10.46620        -0.411115     -2.270390      0.266021
O       9.72404      7.60218      2.28653        -0.698329     -1.040594      0.390190
O       9.04277      7.56813     14.59859        -0.012828     -0.697766      0.573054
O       9.47312      7.42178      6.41218         0.824970      1.249305      0.033862
O       9.64082      7.44324     10.32080         0.001656      0.721920      0.495352
O       9.11496     11.28210      2.60275        -0.138240      0.222512     -0.358150
O       9.56990     11.35500     14.56867         0.340288     -1.467987      0.165309
O       9.03402     11.27593      6.35298         0.327693      0.530542      0.083821
O       9.10299     11.17827     10.55018         0.657310      0.567602     -0.538629
