  # total energy = -7881.55728041 
CRSYTAL
PRIMVEC
    15.3600000000000000    0.0000000000000000    0.0000000000000000
     0.0000000000000000   15.3600000000000000    0.0000000000000000
     0.0000000000000000    0.0000000000000000    17.440000000000000
PRESSURE
2.12536 1.58809 2.17398 0.043709 -0.104502 0.001638
PRIMCOORD
320 1
Pb       3.94487      3.78684      4.35274        -0.397927     -0.007081      0.133436
Pb       3.85574      3.80715      0.00814         0.092118     -0.059872     -0.822976
Pb       3.79440      0.02957      4.35856         0.120025     -0.342835     -0.249500
Pb       3.83930     15.29604     17.32469        -0.110779      0.336569      0.113860
Pb       0.06816      3.83964      4.32862        -0.352161     -0.291718      0.000288
Pb       0.01171      3.80293     17.42479         0.126118     -0.180606     -0.409452
Pb       0.05455      0.02515      4.38000         0.190975     -0.319678     -0.512956
Pb      15.25974      0.09902     17.34800         0.347440     -0.318378     -0.216420
Pb       3.74834      3.87482      8.62962         0.252518     -0.127142      0.083927
Pb       3.72243     15.26913      8.68788         0.192916      0.304482     -0.011277
Pb      15.15449      3.92854      8.66975         0.585866     -0.559773      0.122226
Pb      15.28056     15.27255      8.71759         0.167313      0.027877     -0.069722
Pb       4.02391      3.68221     12.99672        -0.953461      0.860406      0.190555
Pb       3.82924     15.35359     12.96158        -0.089859      0.269568     -0.065634
Pb       0.02159      3.77463     13.00909        -0.215197      0.260956      0.052766
Pb      15.26327     15.19197     13.01224         0.456099      0.920779      0.608401
Pb       3.84599      7.68789      4.30486         0.602134      0.224918      0.038668
Pb       3.79206      7.68462      0.03230         0.070258     -0.011942     -0.492726
Pb       0.07693      7.67372      4.26952        -0.852830      0.114443      0.331770
Pb       0.08785      7.68933      0.04951        -0.030713      0.017627     -0.564178
Pb       3.72724      7.65630      8.63342         0.428419      0.005620     -0.063617
Pb      15.20296      7.66555      8.65805         0.645143      0.317364      0.200750
Pb       3.89968      7.59375     13.08956        -0.632743     -0.320196     -0.041401
Pb      15.34798      7.68066     13.04236         0.350109     -0.168594     -0.034808
Pb       3.81836     11.49171      4.35410         0.586447      0.238153     -0.291437
Pb       3.82007     11.53174     17.40835        -0.042124     -0.166585     -0.099445
Pb       0.07530     11.55526      4.25598        -0.403128     -0.047857      0.108009
Pb      15.23104     11.45738      0.00484         0.642072      0.081149     -0.119238
Pb       3.85040     11.43748      8.68580        -0.129056      0.404449     -0.287876
Pb       0.03375     11.49998      8.71508        -0.319254      0.332774      0.160293
Pb       3.87786     11.36775     12.96108        -0.315581      0.066563     -0.105061
Pb       0.11163     11.43048     13.01018        -0.222333      0.091628      0.314158
Pb       7.64046      3.81349      4.17064         0.736282      0.161111      1.369268
Pb       7.70724      3.76780      0.06209        -0.238801      0.111443     -0.692093
Pb       7.63222     15.29162      4.38426         0.402420     -0.220972     -0.192864
Pb       7.52434     15.33463     17.39192         0.050936      0.008493     -0.136851
Pb       7.48177      3.91601      8.62061         0.632793     -0.058396      0.266572
Pb       7.66130      0.08077      8.73588        -0.120975     -0.083693     -0.390071
Pb       7.75986      3.86168     13.00536        -0.542228      0.024633     -0.332788
Pb       7.71179      0.04369     12.94043        -0.126227     -0.515349     -0.056187
Pb       7.70995      7.63537      4.31777        -0.276860     -0.043920     -0.293545
Pb       7.57901      7.70380      0.01846        -0.267666     -0.382185     -0.163279
Pb       7.74557      7.61000      8.72699        -0.335930      0.035156     -0.375760
Pb       7.72786      7.69465     13.12162        -0.713842     -0.258076     -0.050239
Pb       7.64035     11.39257      4.34147         0.189432      0.466511     -0.106710
Pb       7.58265     11.63485     17.23313        -0.198464     -0.540218      1.198005
Pb       7.78697     11.54468      8.74459        -0.409553     -0.001283     -0.534606
Pb       7.72294     11.61564     12.95250        -0.185645      0.282781     -0.394098
Pb      11.51020      3.72787      4.26912        -0.370075      0.492512      0.539423
Pb      11.60052      3.85326      0.13255        -0.176655     -0.081968     -0.236049
Pb      11.66056     15.31862      4.36287        -0.937118     -0.114698      0.158571
Pb      11.26671     15.27872      0.02223         0.646733      0.094969     -0.297756
Pb      11.53120      3.84271      8.60889        -0.336006      0.033360     -0.255008
Pb      11.43063      0.06561      8.70506         0.347837     -0.510960     -0.739737
Pb      11.46337      3.76140     12.99735         0.641059      0.315586      0.038514
Pb      11.41410     15.28617     13.11815         0.459641      0.222439      0.198061
Pb      11.57209      7.50899      4.33041         0.042812      0.442597     -0.502011
Pb      11.39689      7.74457     17.40983         0.350557     -0.157924     -0.001480
Pb      11.60558      7.70025      8.63530        -0.202467      0.401686     -0.117256
Pb      11.38482      7.54072     13.16679         0.465408      0.438259     -0.390984
Pb      11.45745     11.49731      4.23678        -0.013242     -0.096470      0.504328
Pb      11.42287     11.50432     17.34959         0.407777      0.129639      0.863397
Pb      11.37977     11.40901      8.70395         0.833926      0.138660     -0.381835
Pb      11.59147     11.49692     13.04590        -0.182526     -0.575879      0.664704
Ti       1.95972      1.89977      2.37097        -0.217869     -0.771651      0.210806
Ti       1.91867      1.91196     15.36261        -0.267955      0.443314     -0.309405
Ti       1.94837     13.43434      2.24821         0.441988      0.296562     -0.124516
Ti       1.93511     13.50125     15.33456        -1.478967     -0.511852     -0.234550
Ti      13.46799      1.83662      2.27177        -0.004030      0.583376     -0.632921
Ti      13.29339      1.86793     15.51676         0.911366     -0.519041     -0.386466
Ti      13.38130     13.43538      2.34429         1.011170     -0.651770      1.114755
Ti      13.48388     13.31527     15.41573        -0.484801      1.302002     -0.122664
Ti       1.86221      1.97656      6.69307         0.016734     -0.492993     -0.640759
Ti       1.91628     13.45048      6.66372        -0.384252     -0.027553      1.496492
Ti      13.45400      1.86450      6.64298        -0.741183      0.308886      1.900298
Ti      13.39890     13.38482      6.71067        -0.490822      0.233751      0.575208
Ti       1.87474      2.00867     10.94795        -0.435817     -0.728484      2.349466
Ti       1.93262     13.50336     11.13056        -0.396750     -0.256444     -1.076334
Ti      13.35208      1.92581     11.06356         0.820720      0.406550      0.271069
Ti      13.43494     13.48519     11.11359         0.026897     -1.212861     -0.838955
Ti       1.94103      5.73933      2.40337        -0.088156     -0.424453     -0.256586
Ti       1.87026      5.76315     15.47736         0.655526     -0.666836      0.655747
Ti      13.48186      5.68253      2.34233        -1.012929      0.237844     -0.379515
Ti      13.33200      5.70094     15.47377         0.927654     -0.073470      0.831430
Ti       1.86932      5.78812      6.63479         0.359339      0.279867     -0.596546
Ti      13.44454      5.74366      6.65224        -0.313401     -0.027934      0.019527
Ti       1.90434      5.81690     10.98195        -0.068628     -0.268468      1.441300
Ti      13.43154      5.82429     11.03201         0.216330     -1.754445      0.863484
Ti       1.94465      9.56215      2.28002         0.527329      0.891954     -1.057127
Ti       1.95472      9.66283     15.41451        -0.743266     -0.569520     -0.978652
Ti      13.48328      9.67157      2.32733        -1.429743     -1.119105     -0.131043
Ti      13.36276      9.52248     15.47147         1.117312      0.331628     -0.354480
Ti       1.86663      9.62967      6.66818         0.637163      0.100569     -0.252090
Ti      13.48053      9.65593      6.67154        -0.602691     -0.259461     -1.325662
Ti       1.92590      9.59733     10.96732        -0.464963     -0.191790      2.166004
Ti      13.36542      9.60895     11.10538        -0.031994      0.367517     -1.573290
Ti       5.78340      1.88198      2.38448        -0.007995     -0.488234     -0.788737
Ti       5.76583      1.88785     15.32892        -0.136503     -0.098934      1.223724
Ti       5.74000     13.49366      2.27970        -0.358817     -0.395525      1.169235
Ti       5.66764     13.35081     15.25837         0.346738      0.858127     -0.085208
Ti       5.69595      1.98976      6.72797         0.409244     -0.886075      2.406999
Ti       5.79023     13.53240      6.76817        -0.197978     -0.895478     -0.497714
Ti       5.79161      1.91361     11.05103        -0.473824      0.874943      0.079894
Ti       5.73973     13.38884     10.96385         1.007144      0.320778      0.779928
Ti       5.72716      5.72281      2.38530         0.987823      0.771045     -0.843144
Ti       5.72587      5.70727     15.39897        -0.232105     -0.220590     -0.138932
Ti       5.66987      5.81206      6.59113         0.986664      0.052198      0.524005
Ti       5.75762      5.81359     11.04780        -0.513602     -0.498146      1.098210
Ti       5.78056      9.66503      2.31938         0.489906     -0.989598      0.465370
Ti       5.70230      9.48528     15.29699        -0.691160      0.297943      2.003722
Ti       5.76241      9.65856      6.71544         0.040651     -0.293350     -1.068169
Ti       5.69548      9.48858     10.90265        -0.104056      0.338649      1.976447
Ti       9.62146      1.81252      2.41467        -1.578097      0.420494      0.528732
Ti       9.54747      1.85584     15.36643        -0.607464      1.014068      0.544857
Ti       9.58577     13.40678      2.32536        -0.715192     -0.184981      1.198283
Ti       9.56925     13.43114     15.43040        -0.189936     -0.231560     -0.282276
Ti       9.54842      1.98561      6.72877        -0.060576     -0.395879      0.791414
Ti       9.57639     13.41092      6.70824         0.668989      0.595392     -1.057448
Ti       9.60532      1.95740     10.98276        -0.359085     -0.234038      2.149896
Ti       9.74983     13.40489     10.96381        -1.671230      0.129424      0.063500
Ti       9.57388      5.74022      2.29401        -0.085497     -0.622267      2.635423
Ti       9.57622      5.75477     15.42278        -1.202589     -0.512451      0.207582
Ti       9.61213      5.81592      6.72811        -1.172387     -1.701185     -1.205269
Ti       9.60574      5.80351     10.96287        -0.197922      0.017485      0.196813
Ti       9.66595      9.58114      2.26339        -1.116131      0.395189      1.718830
Ti       9.50058      9.64561     15.44814         0.315666     -0.355118      0.679258
Ti       9.60695      9.56022      6.55346         0.242643      0.187027      0.354408
Ti       9.48214      9.57041     11.08956         0.935049      0.030053     -0.143921
O       1.89443      1.75114      0.65797         0.321470      0.463806     -0.820817
O       1.92747      1.99335     13.59664        -0.103014     -0.252253      0.170447
O       2.10226     13.45431      0.47478        -0.459646      0.039101      0.324404
O       1.80261     13.62985     13.54967         0.615768     -0.625316     -0.216677
O      13.37440      1.86835      0.45801        -0.103975     -0.114561      0.817023
O      13.37051      1.84445     13.78488        -0.269130      0.471482     -1.160194
O      13.60772     13.38037      0.67485        -0.206933      0.028063     -2.136378
O      13.32712     13.31502     13.66502         0.300664      0.016892     -0.510608
O       1.79819      1.95931      4.86915         0.233223     -0.089960      0.581890
O       1.86301     13.52374      4.94971         0.449205     -0.436228     -0.778419
O      13.45038      1.93387      4.95262        -0.067396     -0.565717     -2.161064
O      13.37291     13.45897      4.97399        -0.058720      0.119019     -1.242491
O       1.90600      1.94229      9.26114         0.197379      0.067300     -2.240231
O       1.79247     13.51429      9.35435         0.262712      0.165825     -0.372722
O      13.28091      1.91988      9.32849        -0.188179      0.028482     -1.111764
O      13.38001     13.47351      9.34160         0.145603      0.180893      0.130853
O       1.90804      5.87733      0.66203         0.269613     -0.265136     -0.504497
O       1.83943      5.70084     13.78547        -0.347702      0.060303     -1.761180
O      13.22386      5.62767      0.58748         0.436700      0.265164     -0.341786
O      13.44563      5.71879     13.77198        -0.185232     -0.185386     -1.326132
O       1.74381      5.74304      4.83513         0.379103      0.050907      0.194894
O      13.47647      5.57727      4.93158        -0.179322      0.819899     -0.849808
O       1.83386      5.90187      9.25005         0.117209     -0.517660     -0.982363
O      13.53407      5.80689      9.27266        -0.295315     -0.235581     -1.285852
O       1.99639      9.50739      0.47253        -0.258641     -0.105756      0.817237
O       1.94199      9.65715     13.59171        -0.017108     -0.102941      0.478365
O      13.52539      9.58597      0.55320        -0.563044     -0.096758     -0.520721
O      13.37030      9.66874     13.71883         0.322863     -0.282303     -0.517126
O       1.84122      9.73314      4.89410         0.239446     -0.321374     -0.477927
O      13.51271      9.58134      4.89875        -0.048989      0.125270     -0.063442
O       1.79007      9.39934      9.28888         0.223850      0.576056     -2.088667
O      13.39869      9.61895      9.26415         0.118524     -0.260170      0.959371
O       5.80234      1.82187      0.62147        -0.123309      0.270159     -0.476287
O       5.82013      2.02247     13.60026         0.122271     -0.100844     -1.237084
O       5.62214     13.50884      0.53943         0.019566     -0.054820     -0.603391
O       5.66085     13.35549     13.49521         0.326351     -0.171277     -0.391528
O       5.67225      1.95237      5.05750         0.069558     -0.129780     -2.946787
O       5.69046     13.38601      5.00001         0.226580      0.446558      0.241707
O       5.79110      2.02770      9.34020        -0.112322     -0.287053     -1.738788
O       5.92579     13.49171      9.24826        -0.589074     -0.188450     -0.904057
O       5.88292      5.74879      0.61076        -0.546336     -0.106627     -0.161217
O       5.67282      5.74290     13.60760         0.512389      0.006274      0.201989
O       5.84705      5.72184      4.86392        -0.500050     -0.047515     -0.676881
O       5.60506      5.97553      9.36286         0.046767     -0.244289     -2.312697
O       5.80208      9.61769      0.58093        -0.172424     -0.300978     -0.246920
O       5.61668      9.36303     13.56446         0.276919      1.029836      0.014472
O       5.74798      9.76693      4.89043        -0.321637     -0.373202      0.924023
O       5.66463      9.46418      9.19132         0.149097      0.009971     -1.630693
O       9.52289      1.86711      0.70518         0.079621     -0.319280     -2.063867
O       9.55883      1.93984     13.60550        -0.207718     -0.146017     -0.364547
O       9.61358     13.46492      0.60707        -0.326079      0.074773     -1.678446
O       9.55620     13.30424     13.68931        -0.043504      0.285804     -0.753698
O       9.50875      1.95168      5.02826         0.026010      0.002917     -1.645089
O       9.57772     13.41873      4.91032         0.043983     -0.030622      0.577572
O       9.62838      1.74976      9.30870         0.064032      0.496753     -1.890128
O       9.69059     13.35258      9.16879         0.090665      0.013010      0.723708
O       9.54959      5.82497      0.60732         0.109219     -0.185972     -2.135496
O       9.62366      5.84077     13.63884        -0.263221     -0.344631      0.102546
O       9.50308      5.59762      4.94960         0.321597      0.759981      0.409020
O       9.64426      5.95184      9.21598         0.053573      0.064893     -0.004324
O       9.60196      9.65465      0.53905        -0.068351     -0.425727     -1.413219
O       9.56124      9.52047     13.72935        -0.450379      0.338267     -1.065634
O       9.60711      9.71689      4.81669        -0.006481     -0.484673     -0.121791
O       9.65813      9.61687      9.34275        -0.414558     -0.370209     -0.433646
O       3.88825      1.98104      2.77340        -1.175595     -0.201956      0.296405
O       3.88136      1.96750     15.74085        -0.051901     -0.542377      0.246258
O       3.86226     13.57101      2.82204        -0.653474     -1.022118     -0.127778
O       3.76703     13.45701     15.66391         0.387290     -0.103336      0.224079
O      15.31633      1.75420      2.65042         0.101763      0.407786      0.213867
O      15.34891      1.98027     15.84463        -0.299881     -0.183989      0.133836
O       0.10260     13.38886      2.74619        -0.442682      0.166918     -0.039298
O      15.33592     13.34383     15.66387         0.489389      0.428620      0.528974
O       3.74912      1.88920      7.06464         0.501936      0.516239      0.390324
O       3.88456     13.33275      7.19397        -0.945607      0.551529     -0.079103
O      15.30966      1.92109      7.00639         0.521115     -0.037217      0.608540
O      15.30843     13.40330      6.99078         0.692205      0.405297      0.679607
O       3.87755      1.94238     11.37858        -0.853103     -0.024592      0.161269
O       3.86906     13.60358     11.26394        -0.191702     -0.235010      0.343489
O      15.24320      1.95131     11.16091         0.487050     -0.313339      0.880055
O      15.34304     13.34001     11.33730        -0.538604      0.463982      0.890925
O       3.88311      5.75231      2.68525        -2.038783     -0.092675      0.598829
O       3.84662      5.60077     15.75971        -0.067602      0.316035      0.807031
O      15.33085      5.77046      2.65389         0.588462     -0.248748      0.347708
O      15.34163      5.71677     15.94878        -0.702939      0.105701      0.041590
O       3.77741      5.70257      6.96048        -0.494745     -0.271221      0.326176
O       0.01048      5.74967      7.01141        -0.562471      0.107298      0.471538
O       3.80565      5.84239     11.39702        -0.905385     -0.603945      0.099361
O      15.31241      5.68299     11.47166         0.504839      0.425598      0.151294
O       3.88745      9.42810      2.68082        -1.042906      0.431419      0.139579
O       3.79360      9.66339     15.85005         1.289743     -0.525830     -0.171312
O      15.27669      9.77245      2.49504         2.498402     -0.903429      0.895536
O       0.02874      9.47079     15.81280        -0.616913      0.010318      0.217125
O       3.77534      9.71873      7.08519         0.500952     -0.043928      0.058380
O       0.04157      9.58509      6.99616        -1.035663      0.189278      0.774236
O       3.80859      9.59088     11.35949         0.286122     -0.196815      0.044384
O       0.03408      9.77832     11.40996        -0.961421     -0.917993      0.145454
O       7.64093      1.77506      2.71953         0.131299      0.306476      0.677776
O       7.62656      1.71188     15.82178         0.126146      0.599808      0.022110
O       7.63052     13.45611      2.65627        -0.352127      0.326798      0.243391
O       7.54191     13.42601     15.71873         0.736300     -0.254237      0.082355
O       7.63866      1.96966      7.17454        -0.121280     -0.090657      0.100042
O       7.69621     13.55249      7.11681         0.147902     -0.767769      0.213283
O       7.69673      1.89100     11.47159         1.122019      0.351780      0.038777
O       7.76587     13.39780     11.22161        -0.207707     -0.081473      1.075269
O       7.59783      5.72296      2.71398         1.732546      0.130069      0.181216
O       7.64328      5.84823     15.84422         0.353360      0.114558     -0.127904
O       7.56130      5.80357      7.19519         0.247419      0.536065     -0.154840
O       7.65322      5.77674     11.17602         1.415733      0.214151      0.834234
O       7.73734      9.58630      2.80229        -0.908689     -0.403832     -0.384880
O       7.54687      9.58292     15.84754         0.644328      0.139125     -0.625837
O       7.69607      9.50469      6.95529        -0.590194      0.042855      0.474397
O       7.53367      9.55241     11.27023         1.611144      0.059616      0.655913
O      11.41189      1.96575      2.75552         2.550513     -0.619107      0.070412
O      11.35263      1.65286     15.76390         0.600910      1.094227      0.374798
O      11.52065     13.32671      2.58262        -0.246575      0.454084      0.573779
O      11.46212     13.30638     15.89106         0.296811      0.768034     -0.258971
O      11.50219      2.11418      6.99487         0.051719     -0.756649      0.580115
O      11.47596     13.37007      7.11791         0.100388      0.444048     -0.044578
O      11.43684      1.84098     11.48815         0.192997      0.395142      0.241558
O      11.56653     13.28160     11.60495        -1.304478      0.918552     -0.806287
O      11.52213      5.62579      2.73391        -0.275860      0.173208      0.276368
O      11.38540      5.60345     15.84580         0.346600      0.386368      0.209312
O      11.47696      5.82005      7.09987         1.328804     -0.325563     -0.139428
O      11.54672      5.75878     11.46445        -0.887401      0.483897      0.053145
O      11.47469      9.62587      2.65593         0.930894     -0.085910      0.231901
O      11.50675      9.76047     15.81011        -0.769814     -0.736792      0.175237
O      11.52238      9.55850      6.91834        -0.036913     -0.200722      0.682191
O      11.44844      9.52636     11.41169         0.549419     -0.204938      0.365175
O       1.82040      3.81665      2.67204         0.338419      0.373610      0.122760
O       2.02188      3.71989     15.92232        -0.873443      1.132460      0.486289
O       1.95623     15.33168      2.70781        -0.041196      0.081366      0.576853
O       1.77392      0.02241     15.77193         0.713902     -0.488685      0.069027
O      13.46157      3.70467      2.66782         0.033747      0.447301      0.138267
O      13.36807      3.79136     15.91657        -0.517244      0.047985      0.152356
O      13.43434     15.32057      2.73143        -0.530337      0.139203      0.316389
O      13.37809     15.31731     15.72255         0.410811     -0.764922      0.800870
O       1.91348      3.84127      7.11063        -0.434341      0.398276     -0.037915
O       1.95227      0.02025      7.07543        -0.424426     -0.634467      0.088832
O      13.44216      3.84939      6.95918         0.079828      0.337699      1.192138
O      13.39448     15.35513      7.17173        -0.280004      0.079942     -0.341962
O       1.78958      3.83040     11.48885         0.869009      0.551158     -0.782187
O       1.80041      0.06290     11.48027         0.359650      0.005949     -0.146900
O      13.38876      3.84748     11.47669        -0.535020     -0.604546      0.061765
O      13.32657     15.31178     11.59811         0.041122      0.439393     -0.453768
O       1.82912      7.71651      2.73028         0.135403     -0.401927      0.212405
O       1.99738      7.64111     15.76278        -0.050901      0.103168      0.577419
O      13.44066      7.58858      2.72590        -0.218997      0.713737      0.220166
O      13.17992      7.60510     15.65241         0.256658      0.705873      0.956611
O       1.95055      7.72001      7.00046        -0.208919     -0.813834     -0.235708
O      13.46899      7.72225      7.04357        -0.145894     -0.947959      0.096484
O       1.83161      7.69531     11.44942        -0.174731     -0.319122      0.196147
O      13.47577      7.59970     11.37253         0.185125      2.276054      0.659577
O       2.01678     11.43771      2.58164         0.166226      0.799311      0.445903
O       1.94245     11.50104     15.64374        -0.228657      1.021980      0.499500
O      13.43946     11.50937      2.75496        -0.148891      0.391036      0.183789
O      13.52800     11.48798     15.90685        -0.604098     -0.573055      0.041659
O       1.83905     11.53316      7.18845         0.368246      0.357769     -0.139917
O      13.39425     11.51275      7.04614         0.314337     -0.227817      0.465912
O       2.01381     11.56435     11.35002         0.121992     -0.103439      0.431226
O      13.33581     11.48628     11.46112         0.424175     -0.399736      0.052806
O       5.68966      3.79583      2.82622         0.386976      0.030264     -0.454499
O       5.83024      3.83452     15.76919         0.312005     -0.780834      0.410340
O       5.65759      0.01763      2.74937         0.357537     -0.407769      0.467042
O       5.66507     15.27633     15.62270         0.009549      0.441538      0.342140
O       5.74320      3.86233      7.03796        -0.624595      0.475507      0.531241
O       5.76553      0.05641      7.12345        -0.259499     -0.415242      0.199953
O       5.84429      3.88687     11.39504        -0.249951     -0.334822      0.554522
O       5.79273      0.08077     11.43166         0.262575     -1.566618      0.191248
O       5.73124      7.60369      2.84718         0.420152      0.856778     -0.095674
O       5.58275      7.63626     15.82161         0.510321      0.686555     -0.079430
O       5.47831      7.64184      6.89980         0.653252      1.263517      0.226261
O       5.73333      7.66728     11.57474         0.081632      0.315986     -0.398476
O       5.62725     11.50049      2.65052         0.233400      0.708345      0.183092
O       5.67616     11.51190     15.88549        -0.115353     -0.342256     -1.037475
O       5.81609     11.53388      7.11160         0.198029     -0.369598      0.604722
O       5.75429     11.48411     11.33479        -0.351693      0.123767     -0.000036
O       9.50312      3.78590      2.75023         0.129586      0.446142     -0.365217
O       9.38049      3.78872     15.77426         0.364330     -0.076888     -0.052166
O       9.68172     15.30643      2.80926        -0.172908     -0.408214      0.243392
O       9.47530     15.27760     15.81930         0.323112      0.185877      0.147810
O       9.50402      3.91386      7.19048         0.277861     -0.277822      0.451236
O       9.57242      0.03230      7.01974         0.434824     -0.188370      0.557678
O       9.65827      3.90920     11.29594        -0.326742     -0.724286      0.271922
O       9.66491     15.28494     11.43254        -0.099349     -0.129410     -0.136057
O       9.66840      7.63151      2.73923        -0.235806      0.020137     -0.050586
O       9.55272      7.75205     15.79090         0.567295     -0.669574      0.405160
O       9.60638      7.64830      6.99322        -0.160668      1.096201      0.309750
O       9.48805      7.67645     11.65370         0.523010     -0.146486     -0.852907
O       9.47431     11.52804      2.71619         0.695534     -0.232176     -0.094264
O       9.56512     11.55418     15.86005        -0.814246     -0.768402      0.006151
O       9.66065     11.43189      7.03735        -0.916723      0.560975      0.438169
O       9.55045     11.45817     11.44616         0.055907      0.320997     -0.005188
