  # total energy = -7869.10817844 
CRSYTAL
PRIMVEC
    15.010000000000000    0.0000000000000000    0.0000000000000000
     0.0000000000000000   15.010000000000000    0.0000000000000000
     0.0000000000000000    0.0000000000000000    16.400000000000000
PRESSURE
19.4236 19.282 11.3617 -0.080978 0.03876 0.021244
PRIMCOORD
320 1
Pb       3.67111      3.74648      4.09667         0.281101      0.254132      0.221000
Pb       3.73947      3.71011      0.02698         0.241340      0.345022      0.151389
Pb       3.78049     14.96382      4.10467        -0.155632     -0.254623     -0.123106
Pb       3.66390     14.97740      0.03074         0.610976      0.255545     -0.244846
Pb       0.01382      3.72922      4.09134        -0.097237      0.337250      0.095120
Pb       0.01089      3.83583      0.00368        -0.145792     -0.275733      0.797761
Pb       0.03728     14.96224      4.02202         0.051904     -0.298541      0.818409
Pb      14.99853      0.02277     16.36010        -0.023961      0.021474      0.517397
Pb       3.83812      3.77115      8.14931        -0.488263     -0.377603      0.827436
Pb       3.75832     14.91218      8.20911        -0.251013      0.943263      0.612615
Pb       0.01864      3.71667      8.12080         0.230142     -0.012450      0.386416
Pb       0.07678      0.03035      8.23750        -0.264743      0.123590      0.073082
Pb       3.71913      3.72529     12.34268        -0.126473      0.255201      0.404521
Pb       3.77412     14.96778     12.28137        -0.451900     -0.032146      0.914494
Pb      14.98614      3.76187     12.25212         0.188179      0.013125      0.303300
Pb      14.96572     14.99691     12.30820        -0.092902      0.310111      0.352150
Pb       3.78485      7.44458      4.13101        -0.557620      0.332000      0.100235
Pb       3.68907      7.49663     16.33630         0.222259     -0.157918      0.619768
Pb      14.88750      7.49901      4.07676         0.743287     -0.074703      0.288602
Pb      14.98038      7.52998     16.35195         0.287107     -0.155947      0.369457
Pb       3.75162      7.42846      8.26391         0.147135     -0.045648      0.259100
Pb      14.92540      7.44957      8.12449         0.767849      0.364723      0.530278
Pb       3.75061      7.43642     12.34741         0.209555      0.480172      0.245693
Pb      14.98901      7.55373     12.29809         0.399495     -0.027613      0.890358
Pb       3.73282     11.31354      4.02717        -0.305611     -0.158492      0.244975
Pb       3.70965     11.36876      0.00303         0.313734     -1.049003      0.083541
Pb      14.89628     11.33131      4.07997         0.969399     -0.418853      0.239531
Pb      14.92875     11.14777     16.36163         0.337255      0.157501      0.237592
Pb       3.73282     11.28021      8.21508        -0.514896     -0.446938      0.916204
Pb      14.91235     11.26618      8.19140         0.457979     -0.376065      0.713656
Pb       3.70085     11.21689     12.34179         0.063837     -0.359887      0.114173
Pb      14.94063     11.22671     12.31358         0.190689     -0.473489      0.130295
Pb       7.46345      3.64222      4.19932         0.434347      0.668277     -0.681120
Pb       7.46499      3.68372      0.04222         0.152029      0.704140     -0.092256
Pb       7.48121      0.05123      4.11201        -0.018702     -0.717579     -0.271680
Pb       7.58540      0.07356      0.06026        -0.382803     -0.713364     -0.117184
Pb       7.52369      3.76170      8.18191        -0.238154     -0.029512      0.809828
Pb       7.51201     14.83792      8.21550        -0.391798      0.697819      0.784641
Pb       7.59031      3.68355     12.30971        -0.007326      0.239818      0.334235
Pb       7.48393      0.04789     12.34454         0.229875     -0.133085      0.140748
Pb       7.47895      7.50130      4.20118         0.298095      0.174590     -0.350164
Pb       7.44630      7.49173      0.02473         0.105521     -0.373100     -0.092524
Pb       7.44684      7.53846      8.10021        -0.341388     -0.452284      1.195024
Pb       7.43203      7.44333     12.29218         0.439123      0.049676      0.629868
Pb       7.37135     11.23503      4.08889         0.317656      0.169970     -0.153178
Pb       7.47092     11.19953     16.37773         0.181032      0.676926      0.484118
Pb       7.39126     11.19728      8.26321         0.600446      0.276227      0.367006
Pb       7.45423     11.19702     12.41319         0.433843      0.155736     -0.102447
Pb      11.34344      3.68599      4.08174        -0.347572      0.572273      0.389325
Pb      11.19525      3.69522      0.00193         0.393455      0.592218      0.114555
Pb      11.16845      0.03100      4.08424         0.258487     -0.082453      0.407311
Pb      11.30247      0.05376     16.37483        -0.471461     -0.393160      0.314603
Pb      11.23475      3.70585      8.17802         0.101807      0.335449      0.644245
Pb      11.23895     14.96627      8.17029        -0.020049     -0.159900      0.570746
Pb      11.30568      3.74858     12.33710        -0.770910      0.179815      0.082078
Pb      11.26797     14.93360     12.24483         0.040259      0.135380      0.455879
Pb      11.19623      7.48005      4.04294         0.471756      0.082285      1.081149
Pb      11.28192      7.51773     16.36153        -0.391221     -0.320030      0.346941
Pb      11.31674      7.53164      8.16191        -0.377567     -0.154617      0.481857
Pb      11.28420      7.57686     12.33001        -0.724875     -0.428078      0.393538
Pb      11.17581     11.26990      4.08345        -0.271688     -0.534571      0.370451
Pb      11.25082     11.31582     16.37583        -0.363993     -0.195615      0.119030
Pb      11.21503     11.18199      8.10505         0.078407      0.294025      1.343342
Pb      11.30954     11.18105     12.31734        -0.415940      0.189503      0.021410
Ti       1.89279      1.86386      2.10446         0.010312     -0.143709     -0.429646
Ti       1.84461      1.89273     14.44261         0.355194     -0.805440      0.197563
Ti       1.84478     13.08821      2.04021        -0.300106     -0.106034      0.599254
Ti       1.85786     13.12626     14.40165         0.372730      0.081976      0.546493
Ti      13.17460      1.79540      2.23756        -0.556666      0.960963     -0.714218
Ti      13.12660      1.88739     14.48117        -0.197538     -0.333149     -1.245611
Ti      13.08731     13.08413      2.16544         1.275040      0.567049     -0.507382
Ti      13.17241     13.13660     14.51742        -1.563423     -0.577298     -0.766632
Ti       1.88731      1.81850      6.15884        -0.158242      0.454333      1.054252
Ti       1.84804     13.07629      6.28540        -0.809996      0.987692     -1.405796
Ti      13.07255      1.81799      6.25841         0.897007      0.038473      0.373747
Ti      13.07676     13.09826      6.27879         0.789995      0.504487     -0.915457
Ti       1.85907      1.89716     10.39636         0.087795     -0.346752     -1.355525
Ti       1.80436     13.12916     10.40090         0.296486     -1.579253      0.291671
Ti      13.07834      1.91494     10.30772         0.266818     -0.891089     -0.043040
Ti      13.12074     13.10822     10.33374        -0.967698     -0.449928      0.053655
Ti       1.91964      5.63134      2.15984        -0.119201     -0.087709     -0.148627
Ti       1.88820      5.58153     14.43305        -0.382727      0.452623      0.485073
Ti      13.13966      5.65025      2.19175        -0.087960     -1.345361     -0.994423
Ti      13.16338      5.56383     14.45505        -0.994248      0.533700      0.876367
Ti       1.94354      5.59641      6.26654        -0.589265      0.179481     -0.147815
Ti      13.14672      5.62359      6.29695        -0.261711     -0.960115     -1.293511
Ti       1.84498      5.64942     10.34832         0.308646     -0.505771     -0.877038
Ti      13.10663      5.61372     10.34258         0.138115      0.347882     -0.530561
Ti       1.90583      9.33279      2.15362        -0.828779      0.488715     -0.568544
Ti       1.88878      9.38759     14.55778        -0.492499     -0.460408     -1.093290
Ti      13.12914      9.36768      2.12750         0.128411     -0.448648     -0.347843
Ti      13.03674      9.31570     14.48652         0.649615      1.443406     -1.271635
Ti       1.90253      9.38572      6.26537        -1.427480     -0.536797     -1.232721
Ti      13.14133      9.38960      6.17772        -0.236867     -0.653637     -0.130304
Ti       1.90671      9.31228     10.36549        -0.584135      1.559026      0.406555
Ti      13.12755      9.29169     10.37886        -0.361302      1.126134     -0.126785
Ti       5.61093      1.88830      2.10688         0.068085     -0.084383     -0.167229
Ti       5.63546      1.85551     14.47705        -0.068743     -0.004822      0.198987
Ti       5.55164     13.14052      2.01366         1.380054      0.059738      0.172378
Ti       5.63344     13.13736     14.46446         0.557816      0.113246      0.407170
Ti       5.57799      1.84849      6.21201         1.861275     -0.125221      0.356991
Ti       5.54728     13.08601      6.32725         0.425278      0.439177     -1.975199
Ti       5.53665      1.84116     10.41696         1.582789     -0.134897     -0.689098
Ti       5.59629     13.07813     10.38969        -0.119250     -0.287532      0.990518
Ti       5.69947      5.65892      2.15833        -0.314735     -0.668581     -0.558472
Ti       5.62362      5.56548     14.42811         0.346442     -0.194520      0.561900
Ti       5.67391      5.59321      6.16962        -0.331731      0.976159      1.107808
Ti       5.60545      5.50025     10.37821         0.371570      2.201256     -0.112107
Ti       5.56870      9.33504      2.16200         0.083740      1.052066     -0.118154
Ti       5.64546      9.33584     14.45276        -1.931378      0.357751     -0.152340
Ti       5.51076      9.40394      6.23347         0.570995     -0.848616      0.531553
Ti       5.66623      9.35162     10.34578        -1.046812     -0.486432      1.252936
Ti       9.38126      1.91539      2.10665        -0.032600     -0.382191     -0.011408
Ti       9.37585      1.89493     14.42931         0.162507     -0.001535      0.154336
Ti       9.35574     13.13388      2.19106        -0.687104     -0.193534     -0.594717
Ti       9.37762     13.14700     14.41231         0.113799     -0.279717      0.088761
Ti       9.30004      1.87474      6.27321         0.523487     -0.425698      0.544943
Ti       9.30315     13.08463      6.28628         0.032948     -0.092668     -0.364655
Ti       9.39206      1.85399     10.25893        -1.039186      0.409315      0.238196
Ti       9.31708     13.10165     10.45045         0.207102     -1.076846     -0.110836
Ti       9.38992      5.65347      2.11630        -0.229640     -1.092262      0.142648
Ti       9.40034      5.68192     14.47415        -1.069718     -0.201209     -0.239044
Ti       9.38769      5.61807      6.27202         0.338183     -0.082634     -1.099498
Ti       9.32608      5.62057     10.38877         1.290055      0.090060      1.272921
Ti       9.36980      9.34536      2.14437        -0.613342      0.888978     -0.063296
Ti       9.28927      9.38574     14.47728         0.439273     -0.104112     -0.563353
Ti       9.32263      9.35530      6.31461         0.042981      0.648828     -1.779675
Ti       9.34174      9.31988     10.28985         0.888232      0.465620      1.237998
O       1.95959      1.81684      0.28555        -0.372067     -0.060826      0.271725
O       1.81202      1.89397     12.66955        -0.152849      0.086657     -1.061574
O       1.72512     13.15977      0.27027         0.444741      0.015942     -0.426035
O       1.99696     13.05424     12.63705        -0.441051      0.278900     -0.446323
O      13.04793      1.82342      0.45769         0.099555     -0.164571     -0.711587
O      13.07461      1.85547     12.64458         0.351215      0.103995     -0.044551
O      13.09691     13.11765      0.36226         0.301938      0.037165     -0.255967
O      13.05293     13.08811     12.70352        -0.008794      0.269963     -0.415607
O       1.90862      1.88657      4.37657        -0.105104     -0.173106     -0.270596
O       2.00919     13.12509      4.46362        -0.592212      0.073189      0.080323
O      13.18259      1.86217      4.48206        -0.166745     -0.124348     -0.577792
O      13.18243     12.95777      4.43658        -0.538983      0.445163      0.500953
O       1.94046      1.79636      8.55765         0.053686      0.130022      0.795048
O       1.66302     13.10013      8.63101         0.447107      0.131861     -1.421401
O      13.07023      1.88159      8.50515         0.108188     -0.226795      0.336872
O      13.11699     13.08234      8.54397         0.289658      0.187502     -0.504855
O       1.97000      5.59641      0.38844        -0.454833     -0.038522     -0.362443
O       1.76168      5.57569     12.66309         0.627126     -0.168524     -0.536148
O      13.03879      5.66725      0.38363         0.230727     -0.110654     -0.298871
O      13.13608      5.50000     12.70903         0.172715      0.006724     -1.021643
O       1.85982      5.44201      4.43718         0.255779      0.567222      0.249567
O      13.11325      5.61514      4.43699         0.198290     -0.224131      0.490641
O       1.79393      5.54320      8.49140         0.394240      0.549043      0.667980
O      13.22206      5.62645      8.50673        -0.284595      0.149484      0.332924
O       1.86323      9.32469      0.29643         0.036667      0.004462      0.539941
O       1.87395      9.34221     12.75768        -0.164343      0.079261     -0.864175
O      13.14692      9.37751      0.30379        -0.299600     -0.444443     -0.054162
O      13.12077      9.45057     12.61645        -0.052068     -0.295861      0.912881
O       1.96023      9.34279      4.44549        -0.463423      0.111653      0.684061
O      13.16043      9.30543      4.38185         0.054062      0.409011     -0.186014
O       1.81883      9.30943      8.61147         0.224077      0.002550     -1.149635
O      13.06035      9.25723      8.58022         0.102018     -0.003385     -0.661587
O       5.63664      1.79683      0.31302        -0.403779      0.059655      0.097916
O       5.71552      1.88538     12.68614        -0.133824      0.121373     -1.135337
O       5.66224     13.28599      0.24403        -0.245401     -0.641307      0.206790
O       5.51823     13.07706     12.67537         0.094632      0.190604     -0.615615
O       5.67332      1.88278      4.42078         0.027677     -0.235438     -0.727172
O       5.43629     13.04420      4.48821         0.494590      0.585512      0.373959
O       5.46117      1.82279      8.63358         0.449812     -0.072995     -0.707598
O       5.66416     13.12801      8.61562        -0.277183     -0.253433     -1.645836
O       5.62724      5.58019      0.37349         0.193613      0.649550     -0.239342
O       5.48198      5.40666     12.64987         0.514837      0.451035     -0.144535
O       5.62343      5.68901      4.41929         0.304456     -0.550203     -0.638648
O       5.66425      5.67584      8.58449        -0.039345     -0.175666     -0.261090
O       5.48860      9.25856      0.40438         0.553893      0.222514     -0.943065
O       5.65425      9.54359     12.68515        -0.041517     -0.939341     -0.263296
O       5.45183      9.41592      4.46252         0.465745     -0.142751     -0.157775
O       5.59212      9.33557      8.57823        -0.196697      0.180386     -0.534148
O       9.44170      1.82629      0.30250         0.129498      0.295091      0.225913
O       9.29051      1.88201     12.65315         0.341865     -0.267200     -0.340223
O       9.44486     13.05198      0.41520        -0.246455      0.364280     -0.037815
O       9.30926     13.03806     12.61562         0.448398      0.606175      0.043066
O       9.34927      1.78981      4.48556        -0.374240      0.145011     -0.645602
O       9.35209     13.20056      4.50240         0.132034     -0.199034     -0.799229
O       9.30393      1.88070      8.44283         0.383749     -0.140358      0.578415
O       9.26852     13.02159      8.64326        -0.048680      0.287793     -0.884403
O       9.34224      5.63872      0.30990         0.196178     -0.094770      0.939268
O       9.37508      5.70809     12.69013         0.135507     -0.182869     -0.525613
O       9.30004      5.51815      4.46494         0.407323      0.537028      0.663625
O       9.23648      5.56407      8.66009         0.377972      0.154046     -2.030830
O       9.29677      9.35776      0.34920         0.102119      0.185415      0.593898
O       9.29561      9.20727     12.71399        -0.129082      0.467135     -0.693648
O       9.28882      9.36813      4.46773         0.213984     -0.230311      0.636191
O       9.43714      9.47689      8.51120        -0.272150     -0.555039     -0.865769
O       3.73215      2.11940      2.45093         0.739798     -0.782928     -0.349827
O       3.76910      1.94040     14.63743        -0.709027     -0.397063      0.234648
O       3.72448     13.01500      2.26544        -0.727819     -0.040968      0.130749
O       3.76994     13.11797     14.86607        -1.151452      0.389736     -0.540646
O       0.04139      1.64534      2.39446        -0.181370      0.375169      0.067418
O      14.93176      1.89563     14.81892         1.121526     -0.072072      0.056229
O      15.00242     13.22443      2.42755         0.020250     -0.382716      0.265317
O      14.97976     13.04208     14.62426         0.906250      0.205782      0.318664
O       3.85702      1.74768      6.46897        -2.792541     -0.214365      0.277421
O       3.68352     13.15939      6.58103         0.566559      0.181497      0.829843
O       0.05259      1.88496      6.53486        -0.712230      0.586852     -0.129277
O      14.97994     12.98463      6.47223         0.117872     -0.037767      0.199855
O       3.72002      1.98948     10.75810        -0.137332     -0.233796      0.118768
O       3.70629     12.91204     10.53918         0.028257      0.108675      0.104900
O       0.01567      1.67756     10.61244        -0.962528      0.529538     -0.068698
O      14.92970     13.23553     10.78372         0.476186     -0.200362     -0.183879
O       3.83384      5.45884      2.44905        -0.869791      0.031048      0.243520
O       3.70697      5.60247     14.82537         0.921521     -0.408707     -0.555233
O      14.99221      5.68614      2.34383         0.848638      0.286432      0.512238
O       0.00256      5.64765     14.81351        -0.457662     -0.479917     -0.004045
O       3.82817      5.65551      6.59270        -1.022183      0.616195     -0.212222
O       0.00186      5.49826      6.49654         0.374636     -0.408977     -0.067585
O       3.74673      5.56269     10.68090        -0.407911     -0.382812     -0.175432
O       0.03024      5.71672     10.71375        -0.600841      0.006145     -0.295890
O       3.71158      9.48618      2.44858         0.491798     -0.336925     -0.018998
O       3.71850      9.31207     14.70571         1.237124      0.123632      0.366866
O       0.00324      9.11219      2.30417        -0.414400      0.414861      0.498417
O      14.98911      9.30599     14.68199        -0.750187      0.268872      0.493187
O       3.67989      9.19105      6.68583         0.760623      0.559320     -0.129898
O      14.97047      9.48250      6.52303         0.704267     -0.294281      0.016641
O       3.76484      9.48146     10.75062         0.087182     -0.259000     -0.572926
O      14.95579      9.24753     10.68921         1.069329     -0.181169     -0.125695
O       7.48715      1.64479      2.32806         0.098207      0.051321      0.463751
O       7.53694      1.81689     14.88761        -0.328444      0.339409     -0.548080
O       7.43385     13.12173      2.39335         0.940117      0.757590      0.477036
O       7.52617     13.13556     14.76878        -0.428166      0.050906     -0.061744
O       7.49724      2.04149      6.54255        -1.009860     -0.372201     -0.163599
O       7.44405     12.91099      6.55375        -0.022356      0.162336      0.086856
O       7.57083      1.72668     10.65599        -1.849826      0.173494     -0.209197
O       7.43818     13.22352     10.71578         0.082190      0.334008      0.001247
O       7.55106      5.79738      2.50541         0.107519      0.147673     -0.134571
O       7.47692      5.59248     14.73377         0.321099      0.231479      0.069919
O       7.50230      5.58525      6.58366         0.008215     -0.335777     -0.186530
O       7.51675      5.65970     10.75922        -0.936516      0.112674     -0.145566
O       7.44409      9.22969      2.48553         0.673549      0.342763     -0.015327
O       7.41889      9.36395     14.80212         1.005523     -0.131518      0.458662
O       7.41558      9.54552      6.61644         0.361720     -0.487878     -0.550150
O       7.52448      9.20280     10.67634        -0.442615     -0.201182     -0.366994
O      11.23951      1.96944      2.50334         0.194667     -0.308662      0.018522
O      11.28029      1.83667     14.68498        -0.866125      0.337997      0.499625
O      11.31205     12.95737      2.41904        -2.041482      0.305955      0.524468
O      11.27175     13.05937     14.75564        -0.968011      0.227128      0.042000
O      11.19376      1.74660      6.52812         0.461163     -0.406845     -0.097807
O      11.23116     13.17999      6.61191        -0.328420      0.223537     -0.272965
O      11.19716      2.10197     10.60264         1.567670     -0.874549     -0.023483
O      11.20397     12.94127     10.58898         0.417685      0.453241      0.395241
O      11.26433      5.41530      2.47533        -0.986249      0.163316     -0.047590
O      11.21414      5.60435     14.77048         1.454595     -0.005709      0.122495
O      11.27374      5.71110      6.61004        -0.794135      0.037089     -0.102107
O      11.30898      5.46182     10.64170        -0.593517      0.243383     -0.090332
O      11.24633      9.42444      2.39350         0.057795      0.218203      0.314220
O      11.14851      9.39698     14.65110         1.509358      0.086863      0.541097
O      11.25726      9.22485      6.45518        -0.268318      0.092420      0.249174
O      11.23625      9.37467     10.74407         0.078271      0.434991     -0.390005
O       1.74919      3.72470      2.36233        -0.247589      0.034351      0.267781
O       1.85319      3.68631     14.81228        -0.296085      1.375802     -0.025532
O       1.99228     14.94796      2.35503         0.419893      0.801120      0.370306
O       1.69698      0.01409     14.61178         0.637597     -0.840197      0.442689
O      13.26653      3.67984      2.44256        -0.000879      0.366874      0.321441
O      13.14861      3.73150     14.86881        -0.385878      0.196885     -0.145570
O      13.05669     14.95658      2.56037        -0.344382     -0.358111     -0.003723
O      13.05419      0.00056     14.82113         0.716555     -0.308876     -0.303838
O       2.08638      3.68388      6.55566        -0.517752      0.107897     -0.237326
O       1.77629     15.00984      6.56679         0.509916     -0.753797     -0.065365
O      12.99267      3.68727      6.60168         0.412769      0.384188     -0.486956
O      13.28712     14.95558      6.55606        -0.661560      0.166837     -0.018510
O       1.78732      3.78448     10.59545        -0.132722     -1.077170      0.266982
O       1.96648     14.92897     10.67112         0.192824      1.615567      0.216937
O      13.21476      3.77713     10.60753         0.727877     -1.283410      0.145871
O      12.98389     15.00323     10.57219        -0.315124      0.423921      0.214585
O       2.05525      7.48553      2.43803        -0.058733     -0.677902      0.264291
O       1.83355      7.42089     14.76360         0.182276      0.535247      0.061967
O      12.99178      7.46382      2.47146        -0.132484      0.739792      0.027601
O      13.04436      7.49854     14.65381         0.183462     -0.945916      0.385550
O       1.73561      7.46462      6.49956         0.252024     -0.074238      0.003174
O      13.20815      7.46746      6.49547         0.162774      0.733672      0.072370
O       2.06709      7.49529     10.72081        -0.677065     -0.646604     -0.127116
O      13.09424      7.43654     10.77852        -0.243135      0.195289     -0.377073
O       1.78967     11.21660      2.37269        -0.476320      0.356839      0.111286
O       1.88606     11.26553     14.79552        -0.087071      0.112014     -0.045376
O      13.21455     11.18909      2.40930         0.390473      0.338817      0.107249
O      13.09510     11.20192     14.81935         0.175881      0.485585     -0.190111
O       1.96630     11.26818      6.59623        -0.029192     -1.229723      0.133824
O      13.06747     11.20809      6.58426        -0.410467      0.202783     -0.259498
O       1.68060     11.19232     10.63312         0.112859      0.356111      0.231462
O      13.16971     11.21584     10.60525         0.312227      0.105212      0.055527
O       5.88507      3.76633      2.27031        -0.038732     -0.778374      0.883408
O       5.71167      3.72855     14.86240        -0.493915     -0.235839     -0.174475
O       5.41189     14.99077      2.34445         0.048912      0.558373      0.682081
O       5.62392      0.00853     14.69538        -0.057571     -0.265960     -0.088616
O       5.52320      3.77155      6.47832         0.427805     -0.755350      0.075758
O       5.66804     14.93359      6.48725         0.570306      0.991471      0.338017
O       5.70842      3.72726     10.53850         0.169399     -1.306152      0.462454
O       5.38266     14.97648     10.63964         0.568277     -0.101082      0.108843
O       5.53711      7.51860      2.56019        -0.256313     -0.448496     -0.148336
O       5.68039      7.44362     14.65922        -0.467756      0.208472      0.093494
O       5.68675      7.53366      6.57484        -0.018373     -0.491101     -0.462480
O       5.55660      7.46189     10.77519        -0.165875      0.287171     -0.243267
O       5.61657     11.30107      2.43369         0.304606     -1.229629     -0.192244
O       5.66623     11.23372     14.82064        -0.523223      0.287718      0.115395
O       5.47253     11.24644      6.54854        -0.440261     -0.711330      0.539129
O       5.75398     11.20177     10.71188         0.088953      0.416517     -0.592410
O       9.17736      3.69260      2.49546         0.205970      1.041105     -0.287249
O       9.38209      3.76430     14.68498         0.001181     -0.407516      0.281885
O       9.49542      0.04650      2.46552        -0.118434     -1.622314      0.015151
O       9.35456      0.01215     14.67687         0.458661     -0.862774      0.210415
O       9.49273      3.77394      6.59525        -0.429948     -0.561507     -0.305238
O       9.13890     14.94087      6.60629         0.690001      0.701842     -0.309235
O       9.33274      3.72965     10.70609        -0.415138      0.014335     -0.175109
O       9.49012     15.00234     10.63936         0.175486     -0.166509     -0.152594
O       9.55356      7.49435      2.49787        -0.633191     -0.408905     -0.567054
O       9.38281      7.55672     14.86780        -0.377590     -1.055162      0.041961
O       9.20590      7.50023      6.56635         0.499374     -0.164345     -0.046079
O       9.62984      7.48097     10.66602        -0.943127     -0.310007     -0.537901
O       9.28085     11.23369      2.55968         0.149069      0.153700     -0.183377
O       9.27743     11.25136     14.77399         0.182739      0.295030      0.061594
O       9.51051     11.22642      6.48671        -0.126624      0.148959      0.046734
O       9.19440     11.15631     10.71548         0.267476      0.501713     -0.144649
