  # total energy = -7882.41209835 
CRSYTAL
PRIMVEC
    15.3600000000000000    0.0000000000000000    0.0000000000000000
     0.0000000000000000   15.3600000000000000    0.0000000000000000
     0.0000000000000000    0.0000000000000000    17.440000000000000
PRESSURE
0.546123 0.319551 -3.75724 0.142009 0.289276 0.063315
PRIMCOORD
320 1
Pb       3.74191      3.84548      4.25972        -0.012045      0.224444      0.227678
Pb       3.79484      3.85027     17.34476        -0.042958     -0.050585      0.281121
Pb       3.82072      0.02197      4.23397        -0.057871      0.057993      0.644329
Pb       3.83271      0.07804      0.05260        -0.062641      0.082484     -0.472306
Pb      15.28033      3.82112      4.33949         0.036313     -0.269201     -0.237501
Pb      15.30026      3.86362     17.41789        -0.161549     -0.091567     -0.737634
Pb      15.23963     15.26201      4.28950         0.521469      0.532980      0.668447
Pb      15.29643     15.29816      0.03524         0.383859      0.516987     -0.450442
Pb       3.82483      3.78676      8.73179         0.270803      0.242254     -0.658161
Pb       3.83226     15.29599      8.76791         0.145604      0.138142     -0.833788
Pb       0.05337      3.69070      8.68312         0.000441      0.562760      0.341920
Pb       0.04072      0.01996      8.64586         0.133801     -0.518842     -0.175772
Pb       3.67938      3.88169     13.05070         0.208140     -0.402170     -0.044336
Pb       3.82382     15.24503     13.17180         0.004293      0.463525     -0.468048
Pb      15.28296      3.81922     13.03605         0.292853     -0.059408     -0.142665
Pb       0.02290      0.03906     13.01309         0.067117     -0.121541     -0.228220
Pb       3.82132      7.62874      4.27601         0.106883      0.023205     -0.314527
Pb       3.77244      7.69603     17.40514         0.448739      0.283755      0.157663
Pb      15.30600      7.60043      4.37754         0.209712      0.000726     -0.228744
Pb      15.30163      7.72316     17.34989        -0.216195     -0.528216      0.149602
Pb       3.92840      7.57199      8.77975        -0.395264      0.329922     -0.494557
Pb       0.03952      7.62805      8.75313        -0.194260     -0.055645     -0.422167
Pb       3.77664      7.72134     13.03571        -0.294379      0.015639      0.167654
Pb       0.04765      7.67255     12.96823         0.177825      0.095725      0.319067
Pb       3.75858     11.48596      4.26204         0.166350     -0.198801      0.064348
Pb       3.87713     11.45572     17.43984         0.123893     -0.368344     -0.141652
Pb      15.31965     11.52646      4.29805         0.039017     -0.085375      0.363372
Pb      15.35472     11.48307     17.41672        -0.235081      0.019204     -0.232402
Pb       3.73516     11.53587      8.66425         0.310693     -0.302625      0.022753
Pb      15.34670     11.42194      8.64552        -0.421774      0.728351      0.004165
Pb       3.78297     11.54763     13.08067        -0.121457     -0.038439      0.121510
Pb      15.25785     11.46618     13.15419         0.108151      0.134308     -0.816322
Pb       7.65455      3.81758      4.41178         0.270526      0.069519     -0.269612
Pb       7.63592      3.89342     17.30482         0.982505     -0.079892      0.233500
Pb       7.67984      0.08972      4.21884        -0.121945     -0.192594     -0.094347
Pb       7.73914     15.35197     17.43758         0.005062     -0.173987     -0.565772
Pb       7.71270      3.66534      8.77083        -0.249407      0.284402     -0.518999
Pb       7.62803     15.23488      8.64044        -0.069243      0.250015      0.087796
Pb       7.60799      3.76316     13.18277         0.129628     -0.117895     -0.647990
Pb       7.59604     15.26251     13.16287         0.662769      0.009325     -0.214150
Pb       7.58646      7.67816      4.31610         0.485646     -0.305973      0.039837
Pb       7.77891      7.59027     17.40826        -0.480546      0.159486      0.135515
Pb       7.53771      7.69310      8.68474         0.263870     -0.117126     -0.255876
Pb       7.55921      7.61250     12.99707         0.412899      0.312591      0.053851
Pb       7.67586     11.51716      4.33507         0.161672      0.431737     -0.621935
Pb       7.74638     11.49151      0.05737         0.126468      0.127909     -0.087145
Pb       7.58968     11.40551      8.70098        -0.074056      0.485014     -0.158403
Pb       7.60972     11.40390     13.10904         0.166819      0.330677     -0.048452
Pb      11.45839      3.83069      4.40537         0.409712      0.200068     -0.536424
Pb      11.49418      3.81902     17.33430         0.062177      0.285000     -0.144645
Pb      11.37581      0.06334      4.28185         0.544639     -0.425313     -0.362877
Pb      11.63514     15.35249     17.34765        -0.061849      0.137463      0.256611
Pb      11.52105      3.79745      8.74528        -0.026218      0.386285     -0.120452
Pb      11.48520     15.20966      8.63668         0.564412      0.074099      0.328975
Pb      11.50307      3.85447     13.06962         0.011908     -0.282212     -0.493611
Pb      11.53725     15.31902     12.97641        -0.125732     -0.014832     -0.198129
Pb      11.43918      7.78048      4.33327        -0.162944     -0.567279     -0.222017
Pb      11.54101      7.58729     17.40835         0.150217      0.284049     -0.305053
Pb      11.41495      7.59046      8.73108         0.331068     -0.075034     -0.246185
Pb      11.57478      7.73754     12.87026        -0.467825      0.096196      0.440434
Pb      11.46778     11.49176      4.45599         0.033265      0.559756     -0.642391
Pb      11.58921     11.53555      0.01983        -0.243964     -0.510826     -0.235733
Pb      11.46720     11.53159      8.75159         0.519371      0.013520     -0.654845
Pb      11.41786     11.45869     12.99866         0.708996      0.164578     -0.036456
Ti       1.94951      1.95642      2.28745        -0.885239     -0.077078     -0.968223
Ti       1.95863      1.91337     15.42310        -1.478583     -0.309218     -0.697867
Ti       1.99031     13.46216      2.31388        -1.024602      0.071608      1.410186
Ti       1.94023     13.41712     15.44151        -0.423750      0.883813     -1.179773
Ti      13.47387      1.88822      2.32736        -0.159363      0.561182     -0.395805
Ti      13.49359      1.90304     15.33892         0.460993      0.931743      0.053708
Ti      13.53044     13.39749      2.29471        -1.444758      0.171404      0.168380
Ti      13.48261     13.44279     15.38763         0.149095     -0.546129     -1.843768
Ti       1.97349      1.93374      6.61377         0.124627     -0.602630     -0.500607
Ti       2.01883     13.43812      6.63919        -0.803747      0.612576     -0.669676
Ti      13.44575      2.02426      6.67597         0.163148     -1.512378     -1.707978
Ti      13.48249     13.53597      6.68043         0.358318     -1.472240     -1.037651
Ti       1.99322      1.93505     11.03216        -0.454260     -0.032855      0.413207
Ti       1.98333     13.48683     11.07561        -1.313239     -0.423077     -0.835071
Ti      13.47638      1.91950     10.96634        -0.075865      0.279781      1.140643
Ti      13.49511     13.49894     11.04348         0.199950     -0.590608     -1.120642
Ti       1.82892      5.79889      2.29391         1.155419     -0.455232     -0.142810
Ti       1.94340      5.75687     15.40822        -1.587990     -0.643321     -1.459620
Ti      13.45003      5.76945      2.24175        -0.826707     -1.624173     -0.974805
Ti      13.41700      5.82179     15.29832         0.299732     -1.202051      0.465447
Ti       1.88880      5.70988      6.67985         0.700740      0.298000     -1.209590
Ti      13.48078      5.72856      6.76400        -0.875096      0.274725     -1.129328
Ti       1.92737      5.77356     11.02179        -0.254864     -0.136822      0.571130
Ti      13.46442      5.80223     11.05333        -0.227791     -0.419131     -1.864946
Ti       1.84053      9.59273      2.34447         0.833409     -0.187481     -0.141518
Ti       1.85447      9.58350     15.44511         1.012272     -0.630984     -2.530515
Ti      13.36723      9.55519      2.34816         0.468962      0.326571     -2.072264
Ti      13.41270      9.59180     15.37865        -0.506463      0.280085     -0.935579
Ti       1.82530      9.57066      6.64131         1.496710     -0.038380     -0.762934
Ti      13.38379      9.57491      6.65733        -0.268247      1.122794      0.208959
Ti       1.88075      9.64637     11.02034        -0.650589      0.625149     -0.289027
Ti      13.44680      9.65154     10.97911        -0.251001      0.216293     -0.258616
Ti       5.74968      1.99936      2.29855         0.230557     -0.319494     -0.201461
Ti       5.72835      1.95679     15.44585         0.512840     -0.310542      0.270963
Ti       5.72856     13.50304      2.22605         1.697013     -0.347903      0.387664
Ti       5.76794     13.41326     15.57736         0.840209      0.104775     -0.761969
Ti       5.78256      1.92755      6.66975         0.002443     -0.617317     -0.148401
Ti       5.81403     13.40834      6.58055        -0.406552      0.771380      0.143316
Ti       5.78022      1.84136     11.03587        -0.370887      0.404033     -0.300724
Ti       5.80435     13.42568     11.07553         0.010746     -0.085505     -1.428466
Ti       5.85593      5.72849      2.31043        -0.435403      0.416677     -0.854514
Ti       5.73506      5.80834     15.37150         0.485974     -0.050506     -0.665880
Ti       5.78725      5.77188      6.69176        -0.436481     -0.629403     -0.011608
Ti       5.67776      5.69184     11.09546         0.230365     -0.178605     -1.557684
Ti       5.79119      9.61153      2.37775        -0.883310     -0.384026     -1.507404
Ti       5.82290      9.56026     15.39421        -0.692235      0.047569     -0.263204
Ti       5.66357      9.64320      6.65072        -0.430268     -0.188518     -0.830861
Ti       5.61729      9.64467     11.08735         0.579349      0.151588     -1.543081
Ti       9.60603      1.97465      2.24382        -0.265455      0.059143      0.166061
Ti       9.70665      1.76155     15.36340        -0.599868      0.899973     -1.159980
Ti       9.62986     13.45810      2.21925         0.087844     -0.536504      0.501553
Ti       9.68624     13.29901     15.40794        -1.289937      0.697526     -0.568392
Ti       9.62797      1.86659      6.71016        -0.165903      0.579103     -0.691007
Ti       9.60991     13.41980      6.60087         0.419945     -0.689251      0.052991
Ti       9.63817      1.85736     10.99814         0.188645      0.259238      1.419394
Ti       9.54101     13.37861     11.00499         1.403209      0.939280     -0.883466
Ti       9.67842      5.75808      2.30212        -0.834857      0.025354      0.579581
Ti       9.57716      5.81564     15.23996         0.275761     -1.345044      0.073017
Ti       9.57424      5.75165      6.66164         0.616202     -0.632179     -0.114625
Ti       9.53095      5.78207     11.12029         1.128157     -0.245846     -0.968682
Ti       9.56473      9.62747      2.26584         0.148170     -0.326592      0.154074
Ti       9.61304      9.52436     15.36376         0.489028      0.888413     -0.617307
Ti       9.54713      9.59521      6.60165         0.219708      0.392778     -0.899826
Ti       9.48223      9.64745     10.99442         0.792944     -0.601246      1.021896
O       2.09700      1.98410      0.42994        -0.217347     -0.340534      1.441046
O       1.83370      1.84199     13.62875         0.470573      0.255491     -0.075070
O       1.98950     13.49707      0.61217        -0.095747     -0.256275     -1.974571
O       1.81273     13.54448     13.61087         0.692756     -0.491524      1.010920
O      13.36443      1.80157      0.51704         0.402595     -0.070645      0.826445
O      13.47063      1.94235     13.53569         0.013112      0.063659      1.043670
O      13.60635     13.47054      0.49382        -0.389252     -0.176157      0.094427
O      13.50583     13.45355     13.56955         0.229413      0.083738      0.826034
O       1.94478      1.96948      4.85125         0.079646     -0.082246     -0.174708
O       2.07375     13.47415      4.85587        -0.034778     -0.273671      0.253316
O      13.52391      2.00311      4.78696        -0.470287     -0.063913      1.837513
O      13.49622     13.42764      4.85173        -0.101195     -0.026675      0.461331
O       2.06586      1.93746      9.26575        -0.312956     -0.064995     -0.185753
O       2.00209     13.63684      9.28244         0.333273     -0.516677     -0.167242
O      13.48257      1.98551      9.23795        -0.013612     -0.159764     -1.273802
O      13.46437     13.50900      9.22708        -0.094047     -0.024812      0.106934
O       1.90364      5.81576      0.49841         0.034221     -0.192088      0.389886
O       1.87087      5.81356     13.56885         0.266544     -0.235109      0.866883
O      13.44037      5.73549      0.38877        -0.108665      0.405138      1.709644
O      13.52862      5.78278     13.51115        -0.118465     -0.023715     -0.056879
O       1.75619      5.71233      4.82889         0.597670      0.270451      1.131809
O      13.36995      5.55564      4.93206         0.622853      0.593368      1.063220
O       1.89591      5.64255      9.30359         0.390937      0.446624     -1.546002
O      13.49743      5.80222      9.19453        -0.080258      0.103932      0.736248
O       1.99838      9.48235      0.56016        -0.535164      0.172407     -0.780310
O       1.87706      9.62981     13.54963         0.012474     -0.115065      1.806387
O      13.43315      9.42453      0.42069         0.019277      0.565586      1.966387
O      13.37797      9.66667     13.55891         0.277635     -0.355240      0.996670
O       1.89910      9.70113      4.80711        -0.077159     -0.559843      0.929207
O      13.30628      9.74144      4.82797         0.183653     -0.685596      0.312843
O       1.94222      9.63475      9.22522        -0.311438      0.159636      0.483766
O      13.53694      9.70636      9.19581        -0.074830     -0.382683      0.061019
O       5.65478      1.98482      0.52605         0.075661     -0.017916     -0.498391
O       5.71621      2.08365     13.71707         0.184892     -0.363852     -0.769030
O       5.75855     13.52762      0.44382        -0.299960     -0.223177      0.127143
O       5.84486     13.37967     13.77171        -0.117676      0.071604      0.095367
O       5.93786      1.90873      4.89674        -0.481061      0.068279      0.046423
O       5.75388     13.40533      4.80585         0.258189      0.023672      0.313791
O       5.92094      1.85900      9.24769        -0.507461      0.083287      0.240010
O       5.82114     13.45259      9.28605        -0.118900      0.102817      0.222357
O       5.87311      5.76883      0.47929        -0.132214     -0.010062      1.026105
O       5.74051      5.81360     13.53793         0.089431     -0.179152      0.561124
O       5.84197      5.80430      4.91208        -0.307461     -0.160023      0.706730
O       5.61010      5.77470      9.21741         0.546645      0.012239      1.435503
O       5.74170      9.51110      0.56626         0.039054      0.069437      0.630419
O       5.73932      9.65004     13.56451         0.142596     -0.094914      0.698368
O       5.64917      9.57295      4.82007         0.021951      0.170895      0.731519
O       5.62950      9.62098      9.22673         0.554091      0.215873      1.343851
O       9.50724      2.01461      0.48981         0.523278     -0.520558     -0.109776
O       9.77659      1.76117     13.55101        -0.342549      0.480187      0.906764
O       9.55358     13.37095      0.45359         0.600777      0.325780     -0.450448
O       9.50511     13.35347     13.62028         0.145163     -0.139548      0.424280
O       9.53083      1.79476      4.91361         0.343375      0.045608     -0.009701
O       9.51494     13.25154      4.79880         0.278469      0.622859      0.838118
O       9.65157      2.07298      9.23786        -0.190934     -0.478137      0.009302
O       9.71995     13.39003      9.17629        -0.378691     -0.097000      1.053402
O       9.56859      5.70315      0.54750         0.034909      0.478920     -0.212790
O       9.47547      5.86581     13.45229         0.151494     -0.246879      0.070531
O       9.55285      5.63081      4.90950         0.461285      0.567142     -0.106481
O       9.67098      5.74853      9.28659        -0.529418      0.104557      0.960035
O       9.53373      9.63418      0.48846         0.227872     -0.420735      0.031699
O       9.64933      9.62641     13.55209        -0.250035      0.075672      1.169906
O       9.57822      9.72877      4.69331         0.442164     -0.396851      2.285744
O       9.39084      9.68983      9.24587         0.303872     -0.206053     -0.738961
O       3.82839      1.89640      2.71272         0.090264      0.168875      0.105209
O       3.80692      1.97022     15.69990         1.268862      0.031390      0.519769
O       3.87121     13.51610      2.64450        -0.034414     -0.223874      0.046589
O       3.82528     13.28659     15.76820         0.093165      0.304484      0.218458
O       0.04481      1.99304      2.66458        -0.630727     -0.361728     -0.366542
O       0.07904      1.92210     15.81529        -1.589617     -0.325305      0.138060
O       0.06628     13.37674      2.68890        -1.002704     -0.132795      0.080364
O       0.00926     13.35868     15.80939         1.154326      0.043757      0.431708
O       3.89420      1.95452      6.96838        -0.049224     -0.100856      0.287319
O       3.96718     13.51217      7.04601        -1.441383     -0.499850      0.182603
O       0.02107      1.93698      7.07496        -0.203533      0.112993     -0.008259
O       0.07099     13.51292      6.93267        -0.157370      0.223082      0.506783
O       3.87071      1.87154     11.47377        -0.367651      0.461565      0.126531
O       3.92302     13.32377     11.48655        -1.511754      0.565005      0.324004
O       0.00114      1.99248     11.42943         0.278829     -0.216347     -0.232561
O       0.04509     13.53946     11.29449        -0.342426      0.059495      0.611138
O       3.89925      5.68500      2.73686        -0.924602      0.462133     -0.229645
O       3.85438      5.72132     15.61720        -0.243399      0.104778      0.536773
O      15.34312      5.70077      2.66830        -0.199147     -0.043102     -0.036233
O      15.29145      5.65443     15.75514         0.534717      0.329596      0.062894
O       3.83607      5.69198      7.11425         0.018646      0.300499     -0.316842
O       0.06335      5.74404      7.08340        -0.739034     -0.077224      0.232221
O       3.78418      5.70439     11.47821         0.859142      0.273619      0.151425
O       0.09251      5.88991     11.31837        -1.868781     -0.004594      0.564926
O       3.76640      9.51895      2.58162         0.841410      0.279830      0.841726
O       3.87513      9.36711     15.66529        -0.034968      0.568308      0.545515
O      15.30176      9.61190      2.69024        -0.516948      0.068853      0.162100
O       0.00072      9.62565     15.72154        -0.001992     -0.447749      0.430380
O       3.83890      9.71934      7.14306        -0.509205     -0.293953     -0.645265
O       0.04253      9.61450      7.04511        -1.005291     -0.148183     -0.102330
O       3.74520      9.83583     11.44635         0.736034     -0.628672      0.050931
O      15.31810      9.56157     11.47037         0.104059     -0.263639     -0.270873
O       7.60402      1.99058      2.69370         1.479858     -0.332065     -0.022450
O       7.81818      1.82130     15.64126        -1.111421      0.277521      0.354534
O       7.73196     13.40825      2.54070        -1.151031      0.101607      0.363339
O       7.72482     13.44961     15.88458        -0.383170      0.109561     -0.000206
O       7.76962      1.83347      7.03512        -0.588059      0.325046      0.705357
O       7.75560     13.48472      7.08700        -0.439992     -0.649272     -0.442710
O       7.56757      1.88022     11.42765         1.730503      0.223416      0.526350
O       7.72455     13.39437     11.34062        -0.757313     -0.066202      0.554343
O       7.74115      5.82502      2.79797        -0.369524     -0.370484     -0.374696
O       7.68557      5.74205     15.69716         0.111198      0.023157      0.012947
O       7.72415      5.83134      7.00634        -1.122819      0.020269      0.674540
O       7.58991      5.72688     11.44022         0.781205      0.459181     -0.217940
O       7.67220      9.46449      2.68947        -0.148456      0.566672     -0.031792
O       7.76681      9.51402     15.71392        -1.123123      0.270976     -0.065486
O       7.63297      9.65134      6.95191         0.416886     -0.099775      0.290085
O       7.64402      9.63867     11.47919        -0.825217      0.034576     -0.297125
O      11.48112      1.79484      2.68643         0.209709      0.178114     -0.009820
O      11.59183      1.92693     15.81355        -0.047766     -0.606460     -0.033238
O      11.53881     13.55132      2.58656         0.371859     -0.214221      0.116230
O      11.60334     13.30995     15.63370        -0.355341      0.131471      0.836264
O      11.54418      2.05223      7.06119         0.451099     -0.600663     -0.091755
O      11.55430     13.38589      6.97148        -0.136398      0.374045      0.268971
O      11.57346      1.83550     11.42647        -1.087284      0.129710     -0.351140
O      11.56974     13.46677     11.35284        -0.866556      0.111395      0.358075
O      11.51896      5.70847      2.62832         1.058693      0.505179      0.313834
O      11.48103      5.71991     15.57671         0.565940      0.612824      0.304244
O      11.55909      5.79593      7.00297        -0.136703      0.144396      0.654590
O      11.55657      5.85105     11.35871        -1.291676     -0.552641      0.421882
O      11.49440      9.54113      2.59369         0.658788     -0.314843      0.347866
O      11.56784      9.56499     15.83719        -0.600082      0.228237     -0.092964
O      11.51073      9.55599      7.15396        -0.038020     -0.007745     -0.580524
O      11.50372      9.62926     11.48545        -0.267609      0.229433     -0.839651
O       1.86195      3.81223      2.68259         0.732208      0.694305     -0.104097
O       1.84430      3.80237     15.72502         0.713905      0.967918      0.278656
O       1.77935      0.01127      2.78329         1.040151      0.012245     -0.654160
O       1.96558     15.31589     15.80693         0.219337     -0.624212      0.209538
O      13.34696      3.79298      2.66180         0.372703      0.375083     -0.131298
O      13.41726      3.80022     15.84925         0.182422     -0.212117     -0.663560
O      13.54180     15.32587      2.70928        -0.152783     -0.071093     -0.222719
O      13.53571     15.33912     15.80905        -0.390034      0.075511     -0.071914
O       1.96085      3.80809      6.98400        -0.157179      0.559107      0.589778
O       1.94530      0.06621      7.03319         0.370315     -0.810844      0.286115
O      13.48329      3.83291      7.19590         0.133451      0.461013     -0.260247
O      13.43197      0.04854      6.96832        -0.116871      0.361260      0.370575
O       1.85315      3.85410     11.33183         0.518975     -0.260854      0.808748
O       1.94218      0.02893     11.37313         0.321691      0.104022      0.668449
O      13.33582      3.89010     11.32688         0.564431     -0.144417      0.535961
O      13.49096      0.04589     11.35343        -0.058541     -0.208992      0.288171
O       1.82988      7.68407      2.71836        -0.013523     -0.810024      0.293646
O       1.81794      7.58821     15.70249         0.260204      1.008453      0.521866
O      13.55775      7.57811      2.67700        -0.738566      1.121293      0.343438
O      13.45431      7.65158     15.75826         0.034649      0.285104     -0.234769
O       1.91025      7.67350      7.08006         0.185346     -0.104802     -0.268881
O      13.54863      7.73259      7.00226        -0.012278     -0.832295      0.001192
O       1.98069      7.75599     11.39535         0.225557     -0.309053      0.056267
O      13.25079      7.69700     11.24117         1.260449      0.443616      0.417703
O       1.84136     11.49399      2.69750         0.785216      0.590872     -0.156400
O       2.01319     11.38982     15.85892        -0.341956      1.094654      0.155512
O      13.24720     11.48527      2.53844         0.924301      0.119487      0.178650
O      13.57976     11.49856     15.68359        -0.438433     -0.161559      0.757457
O       1.81704     11.53344      6.96722         0.979020      0.404952      0.362401
O      13.47817     11.53947      7.03499         0.079541     -0.374862      0.178720
O       1.70818     11.57771     11.38797         0.811249     -0.242828      0.198936
O      13.45611     11.50562     11.33125         0.181794      0.651266      0.486719
O       5.81129      3.85632      2.70510        -0.246157      0.180550      0.229580
O       5.82896      3.86786     15.85841        -0.449210     -0.123078     -0.568366
O       5.80930      0.06947      2.58681        -0.235921     -0.959910      0.241319
O       5.71052      0.01938     15.79151        -0.065531     -0.018338      0.163421
O       5.78427      3.81190      7.10574         0.632764      0.517137     -0.034271
O       5.77754     15.33973      7.04681         0.445041      0.005736      0.073075
O       5.77983      3.83089     11.38470        -0.417188     -0.098532      0.186897
O       5.67650     15.27724     11.50339         0.383317      0.785385      0.354924
O       5.76507      7.61176      2.78704        -0.281768      0.582682     -0.068251
O       5.87660      7.64038     15.80685        -0.275018      0.244913     -0.213917
O       5.66972      7.71984      7.14235         0.410588     -0.246099     -0.268215
O       5.62139      7.72538     11.29897         0.097715     -0.041643      0.551507
O       5.79937     11.55060      2.63699        -0.404734     -0.384593     -0.064418
O       5.83627     11.44792     15.91478        -0.374874     -0.349673     -0.214473
O       5.75724     11.53629      7.05592         0.301604      0.045549     -0.105306
O       5.73009     11.56416     11.38366         0.550773     -1.121853      0.626657
O       9.67369      3.84287      2.71779        -0.408496     -0.582407      0.068772
O       9.68595      3.91597     15.78628        -0.579149     -0.550987     -0.712284
O       9.58113     15.33246      2.61692        -0.449475      1.003310      0.200549
O       9.72906     15.26191     15.64619         0.127792      0.170063      0.808172
O       9.63229      3.81445      6.94284        -0.333752      0.294623      0.684887
O       9.72005     15.30100      7.13895        -0.229535      0.268942     -0.659494
O       9.67324      3.78658     11.52450        -0.627860      0.382109     -0.299938
O       9.46395     15.33314     11.43529         0.640452      0.151041     -0.307231
O       9.72144      7.68609      2.75623        -0.528538     -0.289638     -0.233773
O       9.59313      7.66783     15.79081         0.350547     -0.326725     -0.042277
O       9.59861      7.72889      6.97971        -0.001406      0.080765      0.194079
O       9.57785      7.77492     11.38752        -0.298573     -1.310508     -0.160164
O       9.63628     11.49518      2.55605        -0.071819      0.093890      0.326686
O       9.56339     11.46877     15.91389         0.478096     -0.363301     -0.494397
O       9.75872     11.49134      7.01129        -0.863479     -0.110288     -0.052654
O       9.64880     11.52384     11.42518        -0.389832      0.083444     -0.142667
