  # total energy = -7866.03247646 
CRSYTAL
PRIMVEC
    15.010000000000000    0.0000000000000000    0.0000000000000000
     0.0000000000000000   15.010000000000000    0.0000000000000000
     0.0000000000000000    0.0000000000000000    16.400000000000000
PRESSURE
19.3703 19.6364 13.6213 -0.081455 -0.087014 -0.025067
PRIMCOORD
320 1
Pb       3.60184      3.72362      3.98651         0.950508     -0.821660      1.810829
Pb       3.71189      3.69202     16.36182         0.191892      0.383357      0.652985
Pb       3.80714     14.89385      4.09965        -0.168861      0.435670      0.101854
Pb       3.71431     14.97708      0.02877         0.142853     -0.183241      0.598233
Pb       0.00770      3.75833      4.13805        -0.031213     -0.033705      0.247733
Pb      14.98293      3.80395      0.05829        -0.078732     -0.543149     -0.200455
Pb      15.00478     14.96852      4.07662         0.078006      0.202647      0.146654
Pb       0.02057      0.02339     16.35920        -0.161673     -0.288268      0.645500
Pb       3.78902      3.74335      8.13078        -0.113624      0.029654      0.520414
Pb       3.74008      0.02576      8.19799         0.319308     -0.623654      0.388217
Pb      14.95790      3.67829      8.07619         0.046452      0.822166      1.633162
Pb       0.03877      0.07722      8.20931        -0.006326     -0.954187      0.333808
Pb       3.73101      3.68506     12.40814         0.243319      0.323438     -0.318287
Pb       3.74496     14.97634     12.24454         0.039817     -0.323399      0.973172
Pb      14.92608      3.76140     12.28626         0.725097      0.342915      0.016448
Pb      14.93344     15.00449     12.31104         0.669531     -0.255121      0.107474
Pb       3.85565      7.47519      4.14369        -0.683972      0.400372      0.156948
Pb       3.71062      7.55613     16.26406         0.803505     -0.282976      1.835366
Pb      14.97921      7.51169      4.09498         0.209106      0.012062      0.254986
Pb       0.03095      7.48749     16.37009        -0.238232     -0.142828      0.528511
Pb       3.75205      7.42503      8.31077        -0.334382      1.015471      0.225614
Pb      14.97063      7.46725      8.10054        -0.252425      0.313585      1.699631
Pb       3.74186      7.38120     12.37845        -0.496382      0.297137     -0.397467
Pb      14.97119      7.57839     12.31626         0.087541     -0.421812     -0.674250
Pb       3.79903     11.23183      4.01076        -0.182395      0.082741      0.473232
Pb       3.73639     11.36460      0.06608        -0.033179     -0.287616      0.405283
Pb      14.95029     11.29372      4.11006         0.434478     -0.383729      0.028752
Pb      14.98876     11.12563     16.38291         0.236442      0.968596      0.904717
Pb       3.72453     11.29972      8.19295        -0.201815     -0.139947      0.471100
Pb      14.94201     11.29181      8.15206         0.646450     -0.571967      0.906831
Pb       3.71538     11.16007     12.33666         0.066644      0.352136      0.143360
Pb      14.94998     11.19479     12.30095         0.283149      0.374683      0.074610
Pb       7.44045      3.71597      4.15139         0.200513      0.065815      0.404321
Pb       7.44675      3.66914      0.03512         0.347085      0.483240      0.526445
Pb       7.48961      0.01116      4.06187         0.023001      0.047999      1.203868
Pb       7.62860     15.00920      0.03452        -0.409098      0.183652      0.310679
Pb       7.47245      3.79436      8.20302         0.308464     -0.194686      0.323384
Pb       7.44381     14.86090      8.20491         0.404862      0.595015      0.657998
Pb       7.54011      3.69082     12.35505        -0.493670      0.521923     -0.217094
Pb       7.44109      0.08549     12.27123         0.581549     -0.625039      0.687604
Pb       7.55598      7.47124      4.20127        -0.092184      0.042457     -0.189118
Pb       7.43981      7.46461     16.38523         0.542215      0.014712      0.824538
Pb       7.47119      7.48914      8.07528         1.175885      0.144995      1.558238
Pb       7.42657      7.47639     12.24719         0.238853      0.208718      0.275848
Pb       7.40929     11.18300      4.09608        -0.144312      0.078019      0.723007
Pb       7.46011     11.21807     16.36826         0.054653     -0.439429      0.220727
Pb       7.45009     11.22956      8.23592         0.037704     -0.171473      0.263445
Pb       7.45478     11.24009     12.37123         0.094742     -0.136594     -0.146126
Pb      11.37258      3.70765      4.11153        -0.579478      0.044451      0.317020
Pb      11.21413      3.70368      0.01696        -0.168827      0.040107      0.637397
Pb      11.16517     14.99298      4.06921         0.308487      0.023782      0.687267
Pb      11.34747      0.02211     16.33681        -0.421345      0.436953      0.845362
Pb      11.20211      3.68069      8.22932        -0.029854      0.294431      0.329613
Pb      11.23143     14.99225      8.13551        -0.329130     -0.461373      0.924592
Pb      11.24884      3.73942     12.35463        -0.169532      0.149492     -0.351782
Pb      11.23043     14.85706     12.25862        -0.399465      0.829653      0.917525
Pb      11.21155      7.49693      4.05402         0.647894     -0.314542      0.199568
Pb      11.29687      7.47935     16.32104        -0.922858      0.048455      1.087741
Pb      11.35145      7.52048      8.17336        -0.903160     -0.252419      0.222832
Pb      11.17574      7.58045     12.35579         0.326687     -0.320526     -0.577342
Pb      11.14710     11.26439      4.07513         0.821987     -0.324229      0.765490
Pb      11.21272     11.37371     16.36091        -0.038625     -1.016747      0.681385
Pb      11.28519     11.26548      8.08419        -1.081987      0.076185      0.936434
Pb      11.26752     11.17883     12.33501        -0.057256      0.434371      0.041926
Ti       1.87434      1.87011      2.14327        -0.628706     -0.973128      0.178903
Ti       1.84749      1.86775     14.46888        -0.481587      0.019006     -0.015555
Ti       1.91784     13.13469      2.19024        -0.269261     -0.415044     -0.332687
Ti       1.90822     13.11784     14.40905        -0.793251     -0.159264      1.882095
Ti      13.13602      1.87417      2.17177        -0.467299     -0.575792     -0.318773
Ti      13.12629      1.91236     14.32382        -0.217378     -0.571111      2.447032
Ti      13.07671     13.11099      2.21447         0.367796      0.217958      0.001599
Ti      13.13308     13.14485     14.52975         0.365828      0.165824     -0.400599
Ti       1.89034      1.89386      6.25390        -0.011347     -0.954252     -1.398336
Ti       1.79689     13.09226      6.20576         0.993103     -0.000015     -0.426406
Ti      13.15929      1.77372      6.29528        -2.189662      0.440251     -0.953205
Ti      13.13351     13.07501      6.29580        -1.257592      0.425683     -0.572403
Ti       1.93520      1.80788     10.29682        -0.458623      0.498089      1.178162
Ti       1.91853     13.07722     10.37332        -1.238700      0.572499     -0.542306
Ti      13.15594      1.85146     10.34386        -0.960725      0.439615     -0.039900
Ti      13.15969     13.15050     10.39429         0.148423     -0.848608      0.253768
Ti       1.92053      5.64359      2.13537        -0.938303      0.323560      1.634619
Ti       1.86039      5.61192     14.44011         0.201666     -0.360111     -0.112119
Ti      13.20416      5.59556      2.12781        -1.199648      1.174402      1.174860
Ti      13.07965      5.64308     14.50754         0.228630     -0.830422     -0.506517
Ti       1.82815      5.67643      6.29048         0.427309     -1.308962     -0.670389
Ti      13.11362      5.56957      6.23234        -0.469002      0.334039      0.024060
Ti       1.87449      5.53795     10.23655        -0.245388      1.416875      1.445076
Ti      13.18111      5.65963     10.25207        -1.254560      0.190122      1.062650
Ti       1.97019      9.35139      2.19220        -0.502091      0.659741      0.123050
Ti       1.86164      9.40106     14.52868         0.309129      0.023329     -0.107208
Ti      13.24945      9.37247      2.09258        -1.043902     -0.125028      0.683798
Ti      13.10715      9.43234     14.45214        -0.137246     -1.124460     -0.053072
Ti       1.84390      9.32240      6.24732         0.631741      0.732590     -0.446395
Ti      13.11665      9.32328      6.18456         0.096677      0.195735     -0.167706
Ti       1.86172      9.38060     10.36972         0.079372     -1.051476      0.664051
Ti      13.06838      9.43100     10.23351         0.891313     -0.632991      3.143850
Ti       5.60991      1.85667      2.11588         0.460488     -0.159197      0.359436
Ti       5.59096      1.81829     14.46322        -0.086086     -0.472612      1.158957
Ti       5.76472     13.15346      2.08812        -3.419056     -0.641216     -0.933378
Ti       5.63943     13.11362     14.46191        -0.759576      0.697992     -0.386127
Ti       5.66920      1.88138      6.24040        -0.282468      0.037339      0.786105
Ti       5.59059     13.12801      6.23886        -0.444005     -0.009438     -0.438429
Ti       5.66361      1.91626     10.29409        -1.075801      0.268237     -0.130310
Ti       5.65401     13.14576     10.44317        -0.164981     -0.671480     -0.980991
Ti       5.61030      5.62952      2.27798        -0.062348     -0.076893     -1.582815
Ti       5.61521      5.54464     14.51005         0.300689      0.996732     -0.865979
Ti       5.58870      5.68178      6.30311         0.300936     -1.729060     -0.219938
Ti       5.59830      5.70630     10.35486         0.936642     -1.695286      0.448902
Ti       5.71382      9.37583      2.05959        -0.937049     -0.625616      0.617468
Ti       5.56344      9.35708     14.41064         0.951164      0.338867      0.801035
Ti       5.58335      9.34952      6.26251        -0.471404      1.476548     -0.236799
Ti       5.56014      9.41119     10.39370         0.401189     -0.558138      0.737077
Ti       9.33580      1.86047      2.25135         1.502852      0.219945     -1.157548
Ti       9.33456      1.87022     14.52803         0.283806     -0.168540     -0.956409
Ti       9.28463     13.04796      2.14657         1.035524      0.696986      1.094077
Ti       9.34066     13.12833     14.44133         0.247715      0.152943      0.317140
Ti       9.38005      1.80312      6.26892        -0.233690      0.290153     -0.904172
Ti       9.26862     13.08904      6.25998         0.919482      0.056788      0.230281
Ti       9.35940      1.88551     10.41105         1.393044     -0.963665     -0.414054
Ti       9.35075     13.06873     10.43977         0.278126      1.055696     -0.791302
Ti       9.35043      5.58692      2.25036         0.461450      0.605898     -0.300513
Ti       9.28284      5.61088     14.37500         1.022272      0.266411      1.099863
Ti       9.41814      5.57996      6.26921        -0.456810     -0.254037      0.122709
Ti       9.37959      5.64970     10.38204        -0.419353      0.431084     -0.028661
Ti       9.43152      9.36331      2.23167        -0.106508     -0.773707     -0.812284
Ti       9.34393      9.36369     14.44720        -0.283685     -0.512347      0.798541
Ti       9.37694      9.35879      6.18168         0.289051     -0.368904      0.605946
Ti       9.37273      9.41181     10.25826        -1.042334     -1.251362      0.371572
O       1.67737      1.78340      0.35356         0.707577      0.590158      0.230693
O       1.79208      1.88276     12.69877         0.250908      0.108683     -0.635660
O       1.95050     13.13508      0.40346        -0.262217     -0.076286     -0.294592
O       1.90109     13.13817     12.67342        -0.049876     -0.138284     -0.749981
O      13.06910      1.89446      0.38040         0.261553     -0.227200      0.159957
O      13.22154      1.92770     12.59017        -0.116196      0.121748     -1.178002
O      12.92907     13.12745      0.42808         0.236403     -0.147740     -0.469890
O      13.16676     13.20795     12.76026         0.048857     -0.523921     -0.635262
O       1.84211      1.84311      4.45114         0.067233      0.235113      0.213859
O       1.82269     13.08319      4.38433         0.356937      0.118561      0.701078
O      13.02338      1.79963      4.51973         0.429399      0.254957     -0.629011
O      13.03110     13.05844      4.54209         0.491070      0.224787     -0.915930
O       2.03725      1.77590      8.51106        -0.752594      0.067388     -0.302634
O       1.72400     13.21003      8.57877         0.134123     -0.238347     -0.360872
O      13.00403      1.82865      8.51446         0.248366     -0.000812      0.311522
O      13.21291     13.11705      8.63087        -0.165503      0.017797     -1.202256
O       1.84816      5.57593      0.40379         0.251058      0.258404     -1.295126
O       1.92710      5.45976     12.66892        -0.281129      0.456852     -0.256648
O      13.25594      5.64581      0.36571        -0.451530     -0.143472     -1.190435
O      13.10383      5.57551     12.71914        -0.109699     -0.042027     -0.383327
O       1.76729      5.65169      4.51345         0.294798     -0.259577     -0.360083
O      13.23806      5.60475      4.46890        -0.372909     -0.042595     -0.482452
O       1.92374      5.66096      8.48031        -0.375487     -0.274758     -0.351814
O      13.12413      5.71139      8.48947        -0.147216     -0.464117     -0.211264
O       1.84008      9.41035      0.40047         0.013962     -0.355329     -0.442393
O       1.84601      9.43090     12.77132        -0.049309     -0.231590     -0.843969
O      13.04742      9.30825      0.30865         0.713051      0.358225     -0.204197
O      13.07831      9.51354     12.63641         0.148199     -0.755589      0.592018
O       1.82729      9.32925      4.45984         0.508942      0.095868      0.485465
O      13.16033      9.40347      4.44040        -0.032363     -0.208203     -0.676521
O       1.99611      9.36909      8.64919        -0.308411     -0.120452     -1.715823
O      13.04440      9.37774      8.53930         0.109612      0.033365     -2.249256
O       5.58832      1.85969      0.32640         0.316956      0.084137      0.345822
O       5.70170      1.86582     12.72288        -0.305326     -0.009166     -1.376963
O       5.63471     13.07534      0.27740         0.218233      0.313660      0.098543
O       5.60576     13.17012     12.63678        -0.091832     -0.238398      0.268682
O       5.59650      1.94341      4.50452         0.195085     -0.402717     -1.328740
O       5.67779     13.16101      4.41535        -0.421350     -0.673950      1.125785
O       5.53501      1.78778      8.47399        -0.005766      0.465184      1.064486
O       5.65851     13.10085      8.57365         0.158015      0.042558      0.360300
O       5.56015      5.66379      0.46026        -0.040853     -0.621407     -0.710953
O       5.65131      5.59967     12.69979        -0.452312     -0.072994     -0.015851
O       5.65678      5.60623      4.54922        -0.366541      0.211813     -1.092385
O       5.75950      5.60591      8.55227        -0.555836      0.258634     -0.341818
O       5.71295      9.42448      0.29507        -0.410122     -0.490665     -0.503737
O       5.66104      9.24973     12.63792        -0.264592      0.796168     -0.276891
O       5.61160      9.44407      4.49738        -0.347395     -0.439776     -0.672603
O       5.47697      9.48879      8.66146         0.001297     -0.468502     -2.279314
O       9.38209      1.88303      0.37245        -0.295732      0.006982      0.019782
O       9.24839      1.74851     12.69918         0.230149      0.730205      0.228638
O       9.30816     12.99011      0.39324         0.206572      0.279618     -0.881885
O       9.36425     13.23408     12.70307        -0.237651     -0.662692     -0.822192
O       9.29093      1.88612      4.44315         0.366520     -0.198636     -0.012996
O       9.19090     13.01685      4.52336         0.284519      0.237171     -1.049513
O       9.50986      1.82863      8.61334        -0.103613      0.145424     -0.320478
O       9.16584     13.08618      8.63434         0.505508     -0.172304     -0.223479
O       9.28684      5.61553      0.50247         0.067562      0.010571     -0.989795
O       9.34488      5.64732     12.61787         0.247920     -0.206152     -0.559148
O       9.40437      5.66300      4.50886        -0.193080     -0.370729     -0.907232
O       9.33340      5.57083      8.60541        -0.062070      0.115054     -1.156529
O       9.24893      9.35237      0.47204         0.435214      0.071443     -0.975469
O       9.30206      9.42260     12.69763         0.199272     -0.313100     -1.034347
O       9.49419      9.23948      4.40197        -0.569732      0.740037      0.073406
O       9.45565      9.24758      8.51619        -0.207663      0.728495     -0.919352
O       3.78791      1.76622      2.39493        -1.020459      0.760996      0.130372
O       3.70217      1.93278     14.83649        -0.063977      0.414666     -0.430251
O       3.85448     13.09975      2.45106        -0.751003     -0.038232      0.097296
O       3.71745     13.01785     14.79678        -0.128554     -0.192138     -0.314579
O      14.96521      1.84587      2.55339         0.652065     -0.404276     -0.318544
O      14.96740      1.77566     14.70635         0.157490     -0.072320      0.110994
O      14.98569     13.09695      2.41486        -0.125227      0.497561      0.026453
O      14.95858     13.13696     14.92170         1.026491      0.178189     -0.465104
O       3.68772      1.66252      6.51451         1.212059      0.054611     -0.080263
O       3.67297     13.26401      6.64690         0.405608      0.206097     -0.717486
O      14.93422      2.13503      6.46487         1.488926     -0.971523      0.131958
O      14.96011     12.88493      6.54518         0.343191      0.364957     -0.236813
O       3.78289      1.79672     10.87072        -0.517743      0.598652     -1.318133
O       3.76320     13.07519     10.60853         0.150421      0.187271      0.288865
O      15.00222      1.78162     10.55111         0.662602     -0.453106     -0.040042
O       0.02861     13.09681     10.75738        -0.620573      0.296977     -0.027883
O       3.72354      5.50401      2.66439        -0.391281      0.458725     -0.898957
O       3.76753      5.35687     14.69781        -1.295816      0.830663      0.417447
O      15.00942      5.70570      2.50583         1.317653     -0.597576     -0.317760
O       0.01831      5.67196     14.72473        -0.714827      0.306167      0.152748
O       3.70723      5.90875      6.54653         0.557737     -0.906873     -0.078189
O      14.96231      5.41811      6.56493         0.352149      0.200591      0.211787
O       3.73553      5.51362     10.51116        -0.331004      0.347889      0.485343
O      14.97260      5.75483     10.54284         0.588260     -0.087721      0.485606
O       3.79669      9.37614      2.51800         0.510700      0.495394     -0.231786
O       3.73364      9.51410     14.86236        -0.259601     -0.261047     -0.425220
O       0.09551      9.47844      2.55403        -1.070969     -0.572893     -0.772203
O      14.97228      9.22004     14.77798        -0.171735      0.231427     -0.141470
O       3.70765      9.14006      6.56764         0.018170     -0.138700     -0.031175
O      14.97013      9.44821      6.55391         0.171483      0.183731      0.378658
O       3.68719      9.31329     10.81249         0.528996      0.395151      0.202582
O       0.01107      9.35994     10.63202        -1.543022      0.122912      0.223003
O       7.53704      1.81336      2.45633        -1.924029      0.092472     -0.169676
O       7.43783      1.74069     14.81810         0.293074     -0.102391      0.126692
O       7.44489     13.20803      2.57749         2.702824     -0.629086     -0.347840
O       7.47545     13.21728     14.77239         0.254975     -0.050310     -0.194943
O       7.51893      2.04191      6.61537        -0.163604      0.105331     -0.148557
O       7.39959     12.87913      6.60053         0.322680      0.078122     -0.118579
O       7.48662      1.84424     10.60567        -0.375417      0.101420      0.007561
O       7.51714     13.11541     10.83095        -0.618641     -0.098047     -0.304774
O       7.41589      5.69774      2.54437         1.348439     -0.210240      0.256832
O       7.48259      5.66857     14.82681        -0.806488     -0.084476     -0.131607
O       7.50066      5.37206      6.49823         0.348843      0.644112      0.284410
O       7.45234      5.57148     10.77797         0.012272      0.212261     -0.496277
O       7.47102      9.19045      2.51311         0.193171      0.310618      0.208324
O       7.49490      9.26929     14.80567        -1.185651      0.228531     -0.541243
O       7.49681      9.49097      6.35584        -0.342578      0.082807      0.915697
O       7.43510      9.20670     10.45501         0.180665      0.878710      0.640702
O      11.24324      1.84926      2.48300         0.094263      0.325722      0.121139
O      11.20283      2.04685     14.77159         0.638215     -0.650403     -0.581034
O      11.15992     13.03740      2.60296        -0.362258      0.011516     -0.825714
O      11.22074     13.02452     14.71085         0.159314      0.175414      0.327569
O      11.22813      1.49669      6.45849         0.091585      0.770046      0.183240
O      11.20019     13.29281      6.49245        -0.191015     -0.616131      0.534690
O      11.27264      1.76483     10.88123         0.054365      1.288066     -0.968776
O      11.24669     13.09315     10.76064        -0.023918     -0.393209     -0.413799
O      11.29043      5.60342      2.56249        -0.137255      0.029774     -0.574696
O      11.18377      5.46747     14.85732         0.258622      0.450543     -0.580636
O      11.24056      5.84300      6.53395         0.286974     -0.540122      0.048045
O      11.21026      5.52934     10.66480         0.983651      0.132929      0.090783
O      11.33241      9.41112      2.39072        -0.671732     -0.014495      0.148129
O      11.22834      9.30213     14.73524         0.046611      0.460185     -0.042742
O      11.25485      9.27521      6.48147        -0.241969     -0.330093      0.345410
O      11.22766      9.48499     10.65652        -0.293361     -0.321118      0.125930
O       1.78930      3.70069      2.49153         0.188576      0.910674     -0.403471
O       1.70943      3.77003     14.84404         0.465709     -0.983635     -0.111780
O       1.95245      0.01912      2.48434        -0.549851     -0.506474      0.120514
O       2.03159     14.97534     14.83031        -1.117639      0.219395     -0.669925
O      13.19647      3.76486      2.46274        -0.176351     -0.762784      0.093118
O      13.15222      3.69833     14.78324         0.455173      0.975169     -0.048880
O      13.03041     14.98192      2.57465         0.254877     -0.091502     -0.480229
O      13.10693      0.01556     14.78907        -0.583644      0.319306     -0.189537
O       1.97504      3.73311      6.57259         0.260546      0.341216      0.047033
O       1.58971     14.94096      6.36606        -0.162945      1.062440      0.766615
O      12.85471      3.74419      6.48503         0.023997     -1.027088      0.437156
O      13.25655     14.94664      6.59796         0.714438     -0.080712      0.136866
O       1.75140      3.72350     10.53075         0.193470     -1.093668      0.213888
O       1.88589     14.96968     10.69564         0.039765      0.601541     -0.097952
O      13.36584      3.76738     10.50685        -1.319142     -0.555080      0.241604
O      13.08754     14.96432     10.74201         0.428629      0.963852     -0.348112
O       1.94496      7.49229      2.52526        -0.063081     -0.361814     -0.474222
O       1.98856      7.52097     14.80345        -0.364284     -1.240830     -0.567201
O      13.21643      7.49972      2.42153        -0.254349      0.701702     -0.020357
O      13.04571      7.47520     14.75337         0.084771      0.261176     -0.301788
O       1.64954      7.45160      6.66311         0.365568      1.217981     -0.715132
O      13.24413      7.46111      6.54617        -0.057305      0.534314     -0.200805
O       1.80975      7.45391     10.75972         0.635051     -0.032192     -0.107318
O      12.96462      7.54950     10.72805         0.401497     -0.129896     -0.293909
O       1.91500     11.27761      2.46685         0.200498     -0.527732      0.016538
O       1.68909     11.21085     14.84390         0.432348      1.267629     -0.363861
O      13.14411     11.25674      2.55789        -0.221076     -0.305542     -0.578276
O      13.16583     11.24050     14.73643        -0.135590      0.017235      0.341819
O       1.92483     11.20514      6.56133         0.278751      0.056313      0.086482
O      12.90110     11.20024      6.56256         0.948586      0.381394     -0.089620
O       1.88090     11.26986     10.73651        -0.040028     -0.824468     -0.035376
O      13.13891     11.28128     10.69980        -0.040458     -0.491722     -0.135936
O       5.68461      3.69286      2.54437        -0.370006     -0.030135     -0.485944
O       5.62655      3.72671     14.75945         0.552592     -1.066418      0.304052
O       5.65477     14.94093      2.54072        -0.189903      2.042094     -0.514645
O       5.37284     14.96962     14.81694         0.786984      0.254316     -0.608200
O       5.49369      3.76665      6.55275        -0.447358     -0.131737      0.255506
O       5.92656      0.02075      6.45077        -1.118807     -1.137866      0.038086
O       5.53034      3.76119     10.71979         0.507963     -1.096266     -0.478314
O       5.63459     14.97465     10.64198        -0.150028      1.358358     -0.124276
O       5.43641      7.45763      2.41636         0.396346      1.039773      0.322614
O       5.34978      7.48970     14.64687         0.646293     -0.296304      0.342389
O       5.77746      7.50532      6.56145        -0.239335      0.218535     -0.028709
O       5.47714      7.49771     10.70794         0.205493     -0.397709     -0.172175
O       5.77313     11.25453      2.25190        -0.213051     -0.524056      0.866912
O       5.52991     11.25354     14.65172         1.081473     -0.263556     -0.016038
O       5.31071     11.23738      6.52727         0.725646      0.134990     -0.144084
O       5.65975     11.24402     10.67171        -0.079672      0.205118      0.624949
O       9.30848      3.72059      2.39159         0.039256      0.448546      0.663405
O       9.18298      3.74386     14.67202         0.019595     -0.140789      0.270636
O       9.31978     14.95341      2.41430         0.294895     -0.483662     -0.027421
O       9.48017     15.00663     14.83272        -0.384901     -0.539835      0.106610
O       9.61113      3.64648      6.51125         0.090297      1.215469      0.318612
O       9.15159     14.96308      6.50213        -0.377178     -0.569476      0.439769
O       9.29790      3.74771     10.63454         0.327833     -0.604572      0.521314
O       9.36199     14.98018     10.67312        -0.069093      0.069229     -0.008439
O       9.34040      7.50898      2.57894         0.480075     -0.733530     -0.309528
O       9.35244      7.43146     14.77957         0.431871      0.711103     -0.049457
O       9.26770      7.47504      6.54372        -0.414531      0.107469     -0.063251
O       9.21691      7.55457     10.66265         1.499594     -0.984442      0.233881
O       9.17053     11.20093      2.55698         0.373929      0.435734     -0.329260
O       9.28721     11.21547     14.73996         0.113027      0.740580     -0.005714
O       9.44427     11.21282      6.58051         0.212062     -0.029382      0.039212
O       9.26919     11.21554     10.71507        -0.102893      0.173491      0.162051
