  # total energy = -7866.60380815 
CRSYTAL
PRIMVEC
    15.010000000000000    0.0000000000000000    0.0000000000000000
     0.0000000000000000   15.010000000000000    0.0000000000000000
     0.0000000000000000    0.0000000000000000    16.400000000000000
PRESSURE
18.8356 19.077 10.9752 0.212381 -0.06119 -0.015516
PRIMCOORD
320 1
Pb       3.78556      3.86236      4.12263        -0.459784     -0.459517     -0.014800
Pb       3.78611      3.69431      0.08243        -0.420313      0.053879     -0.182668
Pb       3.66852      0.03231      4.06040         0.345345     -0.245830      0.200703
Pb       3.63725     14.93683      0.00777         0.255486      0.306504      0.572465
Pb       0.00955      3.65556      4.00948        -0.274259      0.395316      1.041483
Pb       0.08126      3.70943     16.38364         0.015955     -0.018482      0.764703
Pb       0.06595     14.97179      3.97439        -0.510586      1.158515      1.441566
Pb      14.93462     14.94865      0.06631         0.128925      0.046330     -0.128598
Pb       3.84605      3.77866      8.21828        -0.613564     -0.591082      0.216186
Pb       3.69694     14.91036      8.16072         0.312527      0.205940      0.416096
Pb       0.00590      3.75409      8.24874        -0.032223     -0.030620     -0.284836
Pb      14.99966      0.00223      8.18985        -0.014261      0.155816      1.000463
Pb       3.59879      3.78358     12.29915         0.430359     -0.050928      0.481637
Pb       3.75773     15.00118     12.31061         0.088518      0.107582     -0.060731
Pb      15.00159      3.64324     12.34714        -0.506576      0.740437      0.232567
Pb      14.98425     14.97907     12.38350        -0.369919     -0.488520     -0.511685
Pb       3.73028      7.41491      4.01403         0.052971      0.431852      1.131345
Pb       3.70248      7.37869      0.02960        -0.019620      0.462003      0.379605
Pb      14.94465      7.44239      4.09658         0.064918     -0.247455      0.278120
Pb       0.01301      7.51102     16.37076        -0.119407      0.088670      0.579856
Pb       3.73801      7.45523      8.09140        -0.206440      0.220448      0.490636
Pb      14.93598      7.45993      8.26692         0.230439      0.128415     -0.797779
Pb       3.77462      7.62451     12.27451        -0.295436     -0.792044     -0.002365
Pb       0.05259      7.45369     12.39453        -0.410162      0.082960     -0.504682
Pb       3.71217     11.34457      4.14087         0.023502     -0.544711      0.160493
Pb       3.75640     11.22636     16.33260        -0.352511     -0.225262      0.904043
Pb       0.01970     11.30521      4.05616        -0.435451     -0.583208      1.085327
Pb      14.96048     11.22413     16.38982         0.016119     -0.213392     -0.301282
Pb       3.83739     11.23144      8.17729        -0.853567      0.008495     -0.016911
Pb      14.93540     11.24702      8.30623         0.491664     -0.023988     -0.527717
Pb       3.76568     11.34537     12.28784        -0.182234     -0.572517     -0.135874
Pb       0.00735     11.24860     12.32687         0.205550     -0.082390      0.030899
Pb       7.51952      3.58819      4.06902        -0.831181      0.575404      0.296020
Pb       7.47138      3.76068     16.32380         0.300270     -0.479063      0.233862
Pb       7.45251     14.96033      4.02829        -0.223540      0.401201      0.413451
Pb       7.40447      0.03981      0.03190         0.599210     -0.474560      0.248367
Pb       7.49282      3.74591      8.22063        -0.049328      0.288330     -0.033928
Pb       7.58949     14.96836      8.19329        -0.977592      0.337975      0.160300
Pb       7.50558      3.70905     12.21520         0.222289      0.084729      1.219745
Pb       7.51775     14.93346     12.37589        -0.373081     -0.082212      0.064330
Pb       7.46194      7.53092      4.01609        -0.284107     -0.284242      0.979302
Pb       7.47161      7.55305      0.04057         0.133733      0.094177     -0.323545
Pb       7.42219      7.57638      8.26794         0.464026     -0.703552     -0.179327
Pb       7.46554      7.40737     12.31321         0.417028      0.109825      0.234582
Pb       7.59694     11.32338      4.07247        -0.661079      0.004116      0.106805
Pb       7.55227     11.20670      0.01661        -0.156721      0.663447      0.054541
Pb       7.49575     11.27143      8.22272         0.364572     -0.082788      0.222073
Pb       7.49327     11.16388     12.36665        -0.012427      0.402383     -0.429192
Pb      11.21312      3.73199      4.01634         0.678469     -0.076532      1.025173
Pb      11.16750      3.64181     16.34504         0.159678      0.261295      0.280643
Pb      11.22896      0.02121      4.05860         0.507662      0.214240      1.180803
Pb      11.09029     14.88941      0.08006         0.554893      0.170807     -0.597802
Pb      11.14758      3.75185      8.10742         0.445094     -0.058403      0.679192
Pb      11.20771      0.01911      8.19704         0.151859      0.376194      0.372244
Pb      11.30100      3.70337     12.37168        -0.773680      0.274968     -0.039454
Pb      11.22889      0.05764     12.29229         0.250947     -0.227244      0.414597
Pb      11.21817      7.44940      4.09422        -0.059913      0.006434      0.572422
Pb      11.23842      7.53125     16.36730        -0.110519      0.104212      0.503396
Pb      11.18299      7.50154      8.24538         0.160008     -0.223347     -0.434112
Pb      11.35376      7.53079     12.31495        -0.528052     -0.717419      0.042597
Pb      11.37237     11.20507      4.11230        -0.295248      0.445323      0.495510
Pb      11.32431     11.19634      0.04449        -0.268685      0.471479     -0.093338
Pb      11.20768     11.15113      8.21297        -0.184318      0.289310     -0.080379
Pb      11.26458     11.29285     12.29740         0.004787     -0.023559      0.233704
Ti       1.84164      1.85952      2.18354        -0.242208      1.065053     -0.889224
Ti       1.86779      1.81024     14.40949         0.274913      1.039820      0.054991
Ti       1.80474     13.07683      2.09236         1.337143      0.578998     -0.027367
Ti       1.88452     13.12131     14.37625        -1.455585     -0.711816     -0.160208
Ti      13.10321      1.81300      2.12797         0.267797      1.024790      0.592657
Ti      13.14405      1.78451     14.51535        -0.914037      0.067065     -0.203478
Ti      13.16984     13.11743      2.18778        -1.452786     -0.146368     -1.744419
Ti      13.14037     13.11691     14.42626        -0.524306      0.014213      1.619589
Ti       1.87235      1.84598      6.21635        -0.933351      1.159170     -0.249944
Ti       1.79896     13.14176      6.16191         0.713803     -1.386228     -0.209609
Ti      13.12042      1.88009      6.29133        -0.190653      0.408382     -1.580263
Ti      13.14505     13.20137      6.16195        -0.410990     -1.164024      1.342446
Ti       1.75641      1.80306     10.43141         1.501605      0.675506     -0.570420
Ti       1.85441     13.15369     10.29233        -0.505000     -1.079511     -0.050712
Ti      13.08677      1.89268     10.31971        -0.985199     -1.617992     -0.797800
Ti      13.11711     13.12319     10.32765         0.452785      0.889196      0.355678
Ti       1.84643      5.65760      2.14041         0.202146     -1.087617      0.082973
Ti       1.84091      5.59769     14.41655         1.304084      0.425934     -0.078528
Ti      13.03587      5.57377      2.12703         1.275583     -0.911321      0.795865
Ti      13.10829      5.56409     14.51513         0.186311      0.852849     -1.058251
Ti       1.91235      5.59755      6.23021        -1.948017     -0.031610     -0.163022
Ti      13.10865      5.58242      6.20064         0.174079      1.003274      1.945757
Ti       1.80448      5.63543     10.34843        -0.467113     -0.087124      0.060672
Ti      13.06073      5.56315     10.34925         0.127397      0.935561      0.863573
Ti       1.77630      9.37353      2.24861         0.778395     -0.349720     -1.330220
Ti       1.85281      9.33268     14.47029        -0.380934      0.477719      0.658027
Ti      13.04600      9.27389      2.15068         0.133001      0.880306      0.618496
Ti      13.05988      9.31934     14.34059         1.055463      1.540173      0.418486
Ti       1.86147      9.40952      6.14108        -0.497000     -0.314049      1.656504
Ti      13.10020      9.43917      6.24424         0.669123     -1.276170     -0.638779
Ti       1.91357      9.36444     10.33654        -0.564733      0.184734      0.382731
Ti      13.20626      9.37988     10.27564         0.111516     -0.982161      1.153361
Ti       5.50978      1.84839      2.15775         1.213781      0.889346     -0.578330
Ti       5.60530      1.79909     14.50254         0.277057      0.711258     -0.664375
Ti       5.55736     13.08485      2.16791        -0.318725      0.763428     -0.627310
Ti       5.56719     13.09653     14.50448         2.117079     -0.126353     -0.237819
Ti       5.53488      1.79610      6.22630         0.230412     -0.099182      0.001246
Ti       5.64684     13.08689      6.21097        -0.565862      0.855523      0.654619
Ti       5.61325      1.79138     10.38986        -1.358551      0.185477     -1.297515
Ti       5.59589     13.09647     10.33069         1.044286      0.052412     -0.447117
Ti       5.71658      5.56881      2.13412        -1.031455      0.568706      1.765120
Ti       5.60368      5.59758     14.43565         0.295010     -0.400958     -0.318853
Ti       5.63934      5.59999      6.18274         0.186465     -0.115457      1.197340
Ti       5.56146      5.51650     10.40782        -0.450401      1.333845     -1.162814
Ti       5.53111      9.35094      2.17926        -0.458048      0.228807      0.549101
Ti       5.56520      9.33007     14.44744         0.785752      0.565812     -0.457528
Ti       5.60868      9.35389      6.23523        -0.178268     -0.709083     -1.706989
Ti       5.67729      9.31918     10.33908         0.214573     -0.027602      1.077406
Ti       9.38071      1.89383      2.15605        -1.073585     -0.846281     -0.934015
Ti       9.35764      1.85596     14.41699         0.098773      0.404512      0.204845
Ti       9.43430     13.16306      2.22409        -1.248540     -0.409964     -0.776846
Ti       9.38318     13.15502     14.39014        -0.051754     -0.389411      0.409702
Ti       9.27306      1.95095      6.16344         0.960525     -0.924491      1.647117
Ti       9.41538     13.20016      6.26101        -0.604435      0.255277     -0.159851
Ti       9.29615      1.80636     10.31174         0.646245      1.086228      0.028224
Ti       9.37604     13.14099     10.35138        -0.684055     -1.344633      0.172087
Ti       9.32823      5.58103      2.08789        -0.088634      0.317366      0.452173
Ti       9.37003      5.70270     14.55202        -0.126401     -0.511222     -2.130425
Ti       9.36790      5.66810      6.15218        -0.991860     -0.034156      0.667441
Ti       9.32623      5.59768     10.36180         0.831166     -0.537922     -0.507870
Ti       9.32983      9.37695      2.20694         0.461289     -0.109609     -1.070517
Ti       9.35072      9.46472     14.42541         0.001750     -0.699020      0.530622
Ti       9.32075      9.37796      6.17826         0.520348     -0.147217      1.703972
Ti       9.47558      9.33458     10.35073        -0.978980      0.593251     -0.647957
O       1.84978      1.95412      0.37199         0.173992     -0.201107     -0.633790
O       1.64182      1.86985     12.58843         0.758723     -0.393979      1.259620
O       1.80194     13.06853      0.30156         0.193514      0.218227     -0.349201
O       1.77206     13.15022     12.57449         0.800353      0.009289      0.869792
O      13.18675      1.89473      0.36336        -0.460475      0.027978     -0.764151
O      12.98478      1.80494     12.67246         0.842347      0.089605      0.753317
O      13.08100     13.07193      0.29933         0.338687      0.288329      1.899923
O      13.09706     13.17868     12.69633         0.329906     -0.079660     -1.791365
O       1.78569      1.89732      4.37528         0.434984     -0.450433      0.730131
O       1.79747     13.12799      4.27762         0.261096      0.046296      1.921234
O      13.17740      1.80992      4.45369        -0.328997      0.078434      0.852624
O      13.11204     13.06306      4.39568         0.156606      0.384583     -0.068087
O       1.87727      1.71002      8.65174        -0.239023      0.652616     -0.439700
O       1.78821     13.10060      8.47585        -0.156468     -0.282260      0.409307
O      13.09083      1.91349      8.49410         0.203153     -0.230309      0.562581
O      13.17433     13.17381      8.53763        -0.153769     -0.421237      0.064008
O       1.91031      5.66642      0.34199        -0.163236     -0.226025      0.054776
O       1.90735      5.74728     12.61908        -0.323181     -0.470580      0.608684
O      12.98967      5.65979      0.40732         0.378846     -0.237032     -1.547567
O      13.18159      5.61775     12.66478        -0.771163     -0.125249      1.530514
O       1.77702      5.53951      4.41529         0.291843      0.346870      0.379735
O      13.02910      5.66725      4.47941        -0.003425     -0.048627     -1.721215
O       1.82128      5.56847      8.51881         0.141370      0.294181      0.439561
O      13.12813      5.56388      8.57774        -0.122324      0.223624     -0.317856
O       1.81389      9.34962      0.42770         0.000144     -0.019610     -0.210109
O       1.84874      9.29686     12.72706         0.296711     -0.012780     -0.944614
O      13.04884      9.36070      0.37298        -0.132941      0.262298     -0.197032
O      13.16635      9.37103     12.55577        -0.217983      0.028223      0.793517
O       1.92074      9.34136      4.39136        -0.690289      0.291168     -0.627759
O      13.01173      9.46208      4.36736         0.242502     -0.479629      1.009833
O       1.77330      9.44873      8.58971         0.333429     -0.154650     -0.783752
O      13.17720      9.27494      8.47724        -0.197653      0.592269      0.460019
O       5.56219      1.90827      0.31709         0.118442     -0.110871      0.483015
O       5.65849      1.76322     12.69868        -0.122920      0.118437      0.213823
O       5.46296     13.06799      0.36054         0.264445      0.210932      0.177007
O       5.61711     13.13139     12.70345        -0.374500     -0.009906     -0.215291
O       5.55297      1.84891      4.41395        -0.286349     -0.051339      0.275358
O       5.65640     13.16879      4.42658        -0.367203     -0.351985     -0.446728
O       5.53187      1.70346      8.52343         0.016194      0.750281      1.342710
O       5.64820     13.12593      8.49977        -0.049046     -0.245792      0.893200
O       5.83693      5.66459      0.40643        -0.359561     -0.171449     -1.773867
O       5.55742      5.62145     12.63346         0.111923      0.042284      0.066079
O       5.50343      5.65183      4.44890         0.434639     -0.261598     -0.827081
O       5.54526      5.53857      8.54924        -0.024083      0.095100      0.666005
O       5.44736      9.43834      0.41613         0.683452     -0.302427     -0.896277
O       5.68973      9.29150     12.60599        -0.373460      0.251397      0.714924
O       5.50119      9.21911      4.38965         0.757267      0.978270      1.066687
O       5.71346      9.41485      8.57923        -0.372077     -0.266037     -0.994392
O       9.33443      1.85590      0.34818         0.317007     -0.357259      0.029570
O       9.31356      1.75620     12.63373         0.019114      0.383344     -0.438261
O       9.41215     13.17984      0.40504         0.082327     -0.096946      0.431961
O       9.33832     13.06045     12.60875        -0.067389      0.176445     -0.453928
O       9.26576      1.89928      4.40076         0.540695      0.095588     -0.763461
O       9.40237     13.30251      4.44483        -0.580495     -0.686654      0.191227
O       9.30468      1.89084      8.52196        -0.168489      0.232847      0.086974
O       9.28576     13.19593      8.51751         0.492657     -0.532201      0.650745
O       9.26567      5.60492      0.29903        -0.052849      0.260942     -0.308264
O       9.42411      5.68810     12.70000        -0.283286     -0.063643      0.251769
O       9.30360      5.59393      4.36923         0.688999     -0.205479      0.544422
O       9.30932      5.50051      8.52193         0.018077      0.498320      1.156201
O       9.47778      9.55863      0.41288        -0.569608     -0.729895     -0.157320
O       9.35655      9.47577     12.66326         0.138982     -0.460964     -0.764272
O       9.26581      9.25692      4.41714         0.302955      0.740286     -0.708823
O       9.37201      9.37613      8.49421         0.133993     -0.012641      0.841319
O       3.68898      1.92005      2.42875        -0.189806      0.438785      0.277637
O       3.73101      1.93961     14.81482        -0.295128     -0.473345     -0.582159
O       3.65472     13.10873      2.49456         0.705282     -0.406515     -0.220449
O       3.72971     13.18771     14.69770        -0.471561     -0.453803      0.023305
O      14.94599      1.81178      2.38811         1.115978     -0.093047      0.165549
O       0.03340      1.86115     14.82250        -0.833858      0.018279     -0.361823
O      14.99713     13.23105      2.49474        -0.094904     -0.200062     -0.785236
O       0.00080     13.19704     14.72397         0.300475      0.069483      0.046252
O       3.65496      1.68927      6.62773         0.464173      0.034933     -0.551701
O       3.66807     13.02399      6.57096         1.071885      1.041188     -0.575129
O      14.97580      2.14203      6.52606         1.339475     -0.867453      0.303939
O      15.00277     12.79699      6.46043        -0.722393      0.458143     -0.089583
O       3.65544      1.93424     10.90565         0.847703     -0.437653     -0.990513
O       3.71290     13.19093     10.56679         0.621237     -0.336918      0.517101
O      14.91708      1.78453     10.62672         0.266468      0.004191      0.238721
O       0.03990     13.13803     10.72058        -1.440471     -0.073046     -0.455447
O       3.76242      5.55634      2.40886        -0.407818      0.102490     -0.248903
O       3.77803      5.58790     14.83667        -0.205730      0.140483     -0.108397
O      14.96903      5.63245      2.35511        -0.666051      0.582440      0.290985
O       0.04268      5.60699     14.82656        -1.773189      0.363977     -0.220941
O       3.72089      5.78620      6.46273         0.326896     -0.423551      0.323244
O      14.96086      5.40804      6.53229         0.602260      0.830298      0.001237
O       3.64949      5.61535     10.68061         1.139303     -0.451174     -0.324256
O      14.90385      5.69368     10.75479         0.854519     -0.063946     -0.631976
O       3.66337      9.40917      2.44705         0.354195      0.392517      0.011567
O       3.74475      9.47313     14.76487        -0.488481     -0.555757     -0.345370
O      14.86931      9.24335      2.41704         1.126217     -0.106638      0.342347
O      14.94846      9.34750     14.81595         0.244119      0.058906     -0.300377
O       3.79216      9.38869      6.51790        -0.977366     -0.674877      0.569565
O      14.96630      9.52966      6.57417         0.517011      0.007810     -0.577662
O       3.77534      9.39651     10.60526         0.138949     -0.568961      0.329932
O       0.04862      9.27463     10.72241        -0.735333      0.143013     -0.381233
O       7.40045      1.78239      2.44003         1.090219      0.241522     -0.110587
O       7.53375      1.91447     14.78040        -1.017194     -0.616296      0.036290
O       7.41754     13.21063      2.37693         1.206304      0.173977      0.290916
O       7.54336     13.12419     14.81093        -1.299332      0.208296      0.053066
O       7.41704      1.86295      6.42657         0.224426      0.461383      0.325076
O       7.51275     13.20053      6.52652        -0.246768     -0.440593     -0.291339
O       7.43052      1.89459     10.66836         0.276242     -0.540191     -0.097014
O       7.43591     13.02643     10.78007         0.538241      0.564337     -0.760153
O       7.50386      5.57524      2.71591        -0.246139      0.190798     -1.484375
O       7.48693      5.69124     14.62553        -0.287027      0.089255      0.581464
O       7.43709      5.52891      6.60575         0.835275     -0.130414     -0.484919
O       7.48447      5.64956     10.65982        -0.169945     -0.340731      0.107784
O       7.47417      9.25796      2.35146        -0.528415      0.443261      0.197450
O       7.46140      9.38114     14.77421         0.241771     -0.052531      0.351106
O       7.44446      9.41563      6.57733         1.481562      0.120981     -0.253238
O       7.58107      9.34442     10.57980        -0.971568     -0.265875      0.319077
O      11.25353      1.93526      2.50443        -0.776364     -0.245357     -0.449046
O      11.22617      1.82180     14.74488         0.669964      0.258734      0.253115
O      11.25169     13.16779      2.51384         0.823699     -0.249015     -0.394458
O      11.24656     13.18787     14.65814        -0.329432     -0.124221      0.505814
O      11.22363      1.74623      6.57749        -0.075500      0.461100     -0.575871
O      11.22438     13.40305      6.51742         1.385967     -0.651432     -0.186846
O      11.16393      1.75216     10.63950         0.696180      0.680971     -0.144766
O      11.24183     13.21902     10.78537        -0.248722     -1.134045     -1.068744
O      11.18175      5.48339      2.46985        -0.386039      0.034849     -0.147630
O      11.23486      5.71531     14.86759         0.937139     -0.623685     -0.412272
O      11.16443      5.67764      6.61366         0.956774      0.168610     -0.376614
O      11.20680      5.53045     10.80821         0.602045     -0.130424     -0.674935
O      11.17117      9.56914      2.49889         1.051668     -0.918222     -0.211496
O      11.23375      9.47732     14.70087         0.076356     -0.175348      0.071680
O      11.23461      9.28646      6.69607        -1.214456      0.270596     -0.801714
O      11.32512      9.50154     10.68268        -0.402300     -0.229415     -0.458186
O       1.76009      3.75591      2.39432         0.294286      0.038182     -0.037751
O       1.87941      3.78157     14.62508        -0.119694     -1.371282      0.275129
O       1.97619     15.00202      2.36219        -0.661148     -0.220753     -0.037671
O       1.88148     15.00068     14.72027         0.026168      0.178424      0.040981
O      13.14073      3.68444      2.59243        -0.300251      0.824389     -0.771196
O      13.10390      3.75937     14.82109        -0.097542     -0.833191     -0.326621
O      13.16668     15.00957      2.52108        -0.672262     -0.827675     -0.509020
O      13.09390     14.98792     14.96533         0.296753      0.703954     -0.772791
O       2.07963      3.71082      6.55515        -0.223759      0.087021      0.011833
O       1.69705     14.95225      6.56132        -0.070726      0.515942     -0.646078
O      13.02737      3.75872      6.48639        -0.856987     -0.253578      0.164962
O      13.37679     14.99034      6.55118        -0.310806     -0.082631     -0.480596
O       1.71071      3.76379     10.79393         0.255738     -0.129768     -0.661466
O       1.83832     14.96999     10.70455         0.188312      0.217774      0.049412
O      13.20451      3.67093     10.69202        -0.610135      1.079519      0.120797
O      13.10114     14.97030     10.65138         0.247421      0.373642      0.014184
O       1.90025      7.49467      2.56692        -0.632683     -0.095183     -0.640336
O       1.86297      7.46184     14.84004         0.349513      0.702385     -0.221000
O      12.92192      7.42467      2.49063         0.146888      0.891489     -0.190084
O      13.05684      7.54585     14.79833         0.240731     -1.208047     -0.301346
O       1.76068      7.52376      6.53848        -0.114463     -0.345474      0.094004
O      13.10475      7.56102      6.50032         0.525342     -1.355811      0.076860
O       1.88406      7.47180     10.74212        -0.020042      0.543323     -0.673763
O      13.01736      7.51894     10.69297         0.134993     -0.596188     -0.694910
O       1.71138     11.24920      2.43154         0.118096     -0.254686     -0.076987
O       1.80027     11.23822     14.64663         0.163109      0.437042      0.260943
O      13.28174     11.30112      2.49110        -0.883802     -0.934776     -0.696139
O      13.12651     11.29250     14.71336         0.133281     -1.388585      0.004046
O       2.08377     11.22781      6.37564        -0.907815      0.186712      0.148817
O      12.87370     11.23533      6.55722         0.098170      1.799142     -0.036855
O       1.87655     11.21943     10.79508         0.052360      0.586945     -0.558045
O      13.26564     11.21853     10.62459        -0.471954      1.041587     -0.214889
O       5.56313      3.77148      2.53339         0.512702     -0.893648     -0.385691
O       5.69934      3.69073     14.76198        -0.453356      1.171573     -0.147689
O       5.43697      0.06547      2.43684         0.176735     -2.118225     -0.036100
O       5.61608     14.95155     14.90511        -0.057567      0.688183     -0.429847
O       5.39575      3.69432      6.47794         0.198525      0.184506      0.046355
O       5.54922     14.94845      6.53148         0.084549     -0.179999     -0.211889
O       5.66351      3.71679     10.63333        -0.458964     -0.796546      0.215207
O       5.61034     14.99587     10.75552        -0.180482     -0.765467     -0.256317
O       5.47862      7.44416      2.51993         0.979032      0.484289     -1.061050
O       5.61057      7.52061     14.83498        -0.154488     -0.560611     -0.152430
O       5.64948      7.45401      6.60409         0.168450      0.843728      0.155357
O       5.68062      7.40104     10.62858        -0.506234      1.307904     -0.093834
O       5.67207     11.27872      2.48650        -0.096945     -1.022804      0.276607
O       5.68171     11.25013     14.79310        -0.471381     -0.362371     -0.191967
O       5.63570     11.22885      6.56140         0.052719      0.338154     -0.245460
O       5.54217     11.21506     10.64545         0.235737      0.454414      0.061543
O       9.24591      3.70721      2.20670         0.049935      0.440281      1.120486
O       9.40398      3.78337     14.65955         0.075918     -0.567823      0.383472
O       9.45278      0.05528      2.56776        -0.493180     -0.844453     -0.820207
O       9.32130     14.99731     14.71586         0.101807      0.326892      0.339602
O       9.42836      3.79653      6.57776        -0.612141     -1.125369     -0.762876
O       9.34040      0.11771      6.71899        -0.361696     -0.869507     -1.115356
O       9.29544      3.67594     10.62926         0.237373      0.590285      0.290070
O       9.29502     14.96801     10.56140        -0.480973     -0.211191      0.386060
O       9.37651      7.40728      2.41171         0.253147      1.665169     -0.231281
O       9.40526      7.55931     14.80165        -0.288983      0.849815      0.219130
O       9.28434      7.51139      6.50565        -0.150047      0.097475      0.075848
O       9.46336      7.45955     10.56881         0.085164      0.525131      0.265001
O       9.36891     11.28166      2.50881        -0.845757      0.286835      0.286844
O       9.32549     11.28852     14.76914         0.239103     -0.053685      0.144554
O       9.45382     11.31068      6.53469        -0.125517     -0.375414     -0.405185
O       9.28544     11.19963     10.63026         0.737203      1.217278     -0.143269
