  # total energy = -7882.68707751 
CRSYTAL
PRIMVEC
    15.3600000000000000    0.0000000000000000    0.0000000000000000
     0.0000000000000000   15.3600000000000000    0.0000000000000000
     0.0000000000000000    0.0000000000000000    17.440000000000000
PRESSURE
1.12016 0.806354 -4.97695 0.296314 0.459222 -0.016808
PRIMCOORD
320 1
Pb       3.81540      3.74950      4.36682         0.292260      0.359046      0.131035
Pb       3.80601      3.73610     17.40714         0.241633      0.431362     -0.117593
Pb       3.76602     15.29162      4.39442         0.135807     -0.148637     -0.339981
Pb       3.69994     15.29465     17.31884         0.597449     -0.065501      0.126532
Pb       0.06658      3.73175      4.31827        -0.333659      0.239478      0.203851
Pb       0.11396      3.85668      0.01409        -0.443206     -0.064528      0.005897
Pb       0.05570     15.30822      4.28324        -0.160548     -0.275920      0.051975
Pb      15.22515     15.26264     17.41323         0.216482     -0.131628      0.458008
Pb       3.72830      3.82649      8.75632         0.140822      0.495371     -0.115769
Pb       3.84982      0.02924      8.67300        -0.002152     -0.155000      0.061031
Pb      15.22628      3.97023      8.70272         0.596397     -0.153515      0.182916
Pb      15.19456      0.06513      8.75929         0.410354     -0.136030      0.000226
Pb       3.78673      3.76400     12.94740         0.132270      0.095694      0.238299
Pb       3.71323     15.35510     12.89811         0.427738      0.384917      0.372110
Pb       0.03984      3.73729     13.10682         0.236360     -0.099738     -0.330694
Pb      15.33977     15.28745     13.02643         0.171713      0.248597      0.031681
Pb       3.83065      7.64540      4.32136         0.074631      0.078044      0.459464
Pb       3.74206      7.53462     17.35141         0.051190      0.557565      0.638360
Pb       0.09089      7.80414      4.30506        -0.241306     -0.503523      0.192733
Pb      15.19027      7.61320     17.37793         0.876071      0.377362      0.608649
Pb       3.83844      7.72604      8.71955        -0.102659     -0.407139     -0.556193
Pb      15.34240      7.66582      8.70351         0.433549      0.199645     -0.297025
Pb       3.79172      7.55999     12.96684         0.379454      0.275884      0.403691
Pb      15.35007      7.57715     13.13220         0.091378      0.368535     -0.121933
Pb       3.78923     11.54558      4.31932        -0.341617     -0.332113      0.275446
Pb       3.85138     11.51948     17.34607        -0.414046     -0.408590      0.018839
Pb      15.28750     11.57172      4.30993         0.516603      0.051672      0.130757
Pb      15.23338     11.54121     17.30461         0.221513     -0.131803      0.655047
Pb       3.83374     11.52339      8.71156         0.240113      0.000337      0.083440
Pb      15.26275     11.43530      8.74406         0.157762      0.144447     -0.103903
Pb       3.84100     11.43293     12.97244         0.393375      0.168461      0.597941
Pb       0.13587     11.52545     13.05904        -0.338162     -0.337585      0.347425
Pb       7.72312      3.66866      4.33820        -0.364822      0.682015      0.358021
Pb       7.56155      3.81236      0.02023         0.031717     -0.221122     -0.333054
Pb       7.75505     15.28865      4.38751        -0.468664     -0.300702      0.375411
Pb       7.57628     15.34018     17.39913        -0.022820      0.260791      0.072964
Pb       7.65148      3.86895      8.63983        -0.133543      0.010003      0.374295
Pb       7.64562     15.33092      8.66021        -0.136257     -0.000672      0.244713
Pb       7.81026      3.95439     13.07798        -0.315043      0.122132      0.026878
Pb       7.56039      0.17591     12.96862         0.584585     -0.923752      0.299639
Pb       7.72011      7.56195      4.31764        -0.175482      0.094533      0.287861
Pb       7.52932      7.72455     17.41509         0.266024      0.041424     -0.224912
Pb       7.67493      7.70587      8.68394         0.181028      0.018013      0.030700
Pb       7.61597      7.68204     12.96993         0.293021     -0.034614      0.342645
Pb       7.70298     11.45218      4.37090        -0.220511     -0.062287     -0.076315
Pb       7.59717     11.52631     17.40710         0.463513     -0.351807     -0.134618
Pb       7.63302     11.55852      8.66202         0.345554     -0.007219     -0.265077
Pb       7.70157     11.50378     12.95694         0.052851      0.298285      0.540453
Pb      11.42992      3.74028      4.25581         0.550142      0.991245      0.750831
Pb      11.63286      3.80403      0.05725        -0.219576      0.092333     -0.202739
Pb      11.52380     15.22099      4.33124         0.565611      0.272691      0.768555
Pb      11.35145     15.25858      0.05833         0.605172      0.023217     -0.192346
Pb      11.38390      3.95882      8.67084         0.272478     -0.262194      0.104205
Pb      11.46498      0.00275      8.67039         0.052984      0.047571      0.336362
Pb      11.59548      3.72126     13.19101        -0.161743      0.260071     -0.097629
Pb      11.55327     15.34296     12.98637        -0.558113     -0.278692      0.760719
Pb      11.46468      7.66609      4.22494         0.416934     -0.141550      0.239730
Pb      11.50266      7.63877      0.03232        -0.265791      0.238930     -0.157733
Pb      11.52388      7.69994      8.67426        -0.009181      0.039385      0.121105
Pb      11.43976      7.61439     13.10835        -0.038204      0.059257      0.212970
Pb      11.55399     11.45359      4.26813         0.232564     -0.163285      0.209286
Pb      11.35075     11.45559     17.40072         0.356922     -0.043706     -0.008696
Pb      11.58448     11.51718      8.65189        -0.432642     -0.160937      0.211234
Pb      11.55013     11.46967     13.02308        -0.188431      0.161037      0.373727
Ti       1.93164      1.89507      2.30943         0.008890     -0.194013     -0.727859
Ti       1.90803      1.87155     15.45682        -0.002705      0.339015     -2.419978
Ti       1.90784     13.35732      2.26878        -1.185635      0.195467     -0.977357
Ti       1.86830     13.41524     15.35320         0.316645     -0.069825      0.280110
Ti      13.47701      1.86121      2.37776        -0.117775      0.271101     -1.624123
Ti      13.42301      1.86404     15.54590        -0.117854      0.393773      0.249622
Ti      13.35153     13.38523      2.32353         1.573093     -0.084774     -1.569595
Ti      13.39453     13.45869     15.35887        -0.703497     -0.138834     -0.887081
Ti       1.89563      1.90183      6.67451         0.013977     -0.414786     -0.669866
Ti       1.90142     13.38704      6.76996         0.089476      0.456950     -1.378228
Ti      13.49935      2.02080      6.70461        -1.100486     -0.336573     -1.734197
Ti      13.49141     13.47789      6.72512        -0.485213     -0.388400     -1.338367
Ti       1.88187      1.91852     10.97455         0.421534      0.609790     -0.477325
Ti       1.95186     13.43914     10.97335        -0.226541      0.081888     -0.822783
Ti      13.39800      1.86742     11.06283         0.629568      0.772208     -0.797682
Ti      13.49557     13.37057     11.12093        -0.825363      0.253108     -1.330728
Ti       1.91951      5.74040      2.37329        -0.166163      0.190562     -1.864872
Ti       1.87391      5.73517     15.37367         0.317465      0.701336     -0.834470
Ti      13.47683      5.68070      2.34395         0.055595      1.099955      0.066721
Ti      13.44735      5.79068     15.36392        -0.860954     -0.912463     -1.079047
Ti       1.89555      5.69730      6.61992         1.061802      1.115720     -0.174108
Ti      13.49783      5.80773      6.63886        -1.390587      0.235364     -1.801751
Ti       1.91869      5.79070     11.05121         0.131339     -0.995363     -1.751091
Ti      13.45367      5.75208     11.13469        -0.048364     -0.163696     -0.372408
Ti       1.96888      9.55664      2.24418        -0.568853      1.350479     -0.944911
Ti       1.89451      9.58937     15.46605         0.157817     -0.180683     -1.047108
Ti      13.56760      9.52179      2.33054        -1.843108      0.594721     -1.193383
Ti      13.39362      9.57391     15.38646         0.362131      0.406239     -1.019346
Ti       1.92785      9.63870      6.79055         0.686839     -0.641980     -1.013731
Ti      13.50231      9.57617      6.66128        -0.858940      0.440438     -1.740017
Ti       1.95611      9.61494     11.06657        -0.126907      0.005381     -2.103179
Ti      13.50239      9.56409     11.15312        -0.372920     -0.450129     -0.960495
Ti       5.78087      1.81671      2.44615        -0.149212      0.348622     -0.827541
Ti       5.76548      1.88273     15.29751         0.065313     -0.123206      1.432393
Ti       5.76119     13.36206      2.34686        -0.250591      0.504589      0.860285
Ti       5.73081     13.40991     15.31575         0.044738      0.467795     -2.563401
Ti       5.74440      1.98251      6.65969        -0.677316     -0.260066     -0.345825
Ti       5.72111     13.49075      6.66908        -0.131982     -0.337409     -1.124823
Ti       5.80575      1.97294     10.99432        -0.934857     -0.078126     -0.180231
Ti       5.78784     13.41968     11.06405        -0.153582      0.563824     -1.367495
Ti       5.74049      5.67924      2.36001        -0.302282     -0.229825     -1.283826
Ti       5.70876      5.74773     15.44396         0.554662     -0.345010     -1.829667
Ti       5.76959      5.74745      6.73170        -0.666086      1.026207     -0.774348
Ti       5.83246      5.74630     11.03452        -1.121617     -0.782305     -1.694964
Ti       5.75991      9.49109      2.39136        -0.014325      0.694258     -1.290481
Ti       5.71454      9.64362     15.34378         0.288094     -0.575362     -1.721930
Ti       5.82013      9.61734      6.69800        -0.367638     -0.576432     -1.182036
Ti       5.80858      9.59799     11.03865        -0.158435     -0.213966     -0.492813
Ti       9.64763      1.87035      2.41984        -0.647932     -0.380247     -1.041142
Ti       9.63933      1.96044     15.49514        -0.293951      0.123952     -1.458842
Ti       9.56161     13.45148      2.35180         0.388197     -0.354912     -0.836644
Ti       9.49784     13.52484     15.34764         1.102981     -1.120032     -1.586886
Ti       9.61642      1.88168      6.68667         0.245795      0.562771     -0.249730
Ti       9.65976     13.44213      6.68998        -1.116819     -0.635943     -0.775755
Ti       9.63576      1.97212     11.10344        -0.728291     -0.751461     -1.685920
Ti       9.60926     13.46885     11.09420         0.288120      0.271629     -0.407353
Ti       9.55983      5.70916      2.23954         0.499738      0.655270     -0.279223
Ti       9.58030      5.78369     15.55566        -0.147786      0.086860     -0.899932
Ti       9.61901      5.76881      6.66384        -0.239068      0.205305     -1.352426
Ti       9.67351      5.77133     10.99790        -0.589028      0.399639     -1.009678
Ti       9.60101      9.64201      2.36037         0.568328     -0.299209     -2.081435
Ti       9.53618      9.58196     15.39047         0.308009      0.130638      0.286083
Ti       9.71672      9.56763      6.64453        -0.675041      0.591985      0.000349
Ti       9.68816      9.59620     11.02072        -0.294477     -0.268769     -1.570957
O       1.82519      2.00246      0.47698         0.714618     -0.109075      0.324654
O       2.08420      1.90805     13.48672        -1.018097     -0.060126      2.418110
O       1.82071     13.44971      0.43589         0.537404     -0.021676      1.068131
O       1.82551     13.46759     13.58782         0.065638      0.123374     -0.321598
O      13.33496      1.96254      0.51997         0.570498     -0.191582      1.506165
O      13.43579      1.87788     13.79345        -0.301110      0.119846     -1.048448
O      13.50360     13.49742      0.47330        -0.273061     -0.373682      1.279301
O      13.49421     13.51323     13.51919         0.053797     -0.027392      0.934860
O       1.84668      1.88731      4.80473         0.043642      0.120961      1.356226
O       1.87893     13.34548      4.90243         0.426075      0.326647      1.151606
O      13.62428      1.98229      4.87730        -0.561124     -0.230175      1.105230
O      13.36960     13.47032      4.88294         0.129694     -0.027639      1.172898
O       1.97281      2.04088      9.16821        -0.438185     -0.378067      0.565183
O       1.92527     13.32583      9.20960        -0.295335      0.261980      0.037501
O      13.44993      1.94185      9.27715        -0.006927     -0.009054      0.516632
O      13.43421     13.40782      9.25044         0.297460     -0.094771      1.248895
O       1.98623      5.75631      0.49145        -0.121881     -0.296390      1.444921
O       1.85582      5.68221     13.53178         0.180787      0.457700      1.114830
O      13.49407      5.81866      0.56463        -0.208202     -0.445093     -0.190814
O      13.40904      5.89608     13.51123         0.223288     -0.689745      1.490774
O       1.93030      5.75067      4.79748        -0.024714      0.120845      0.760051
O      13.35301      5.82105      4.84864         0.306790     -0.033817      0.791685
O       1.97058      5.63520      9.16650        -0.681331      0.529997      1.890815
O      13.46842      5.67358      9.30619         0.177682      0.367263      0.912087
O       2.07349      9.64102      0.46498        -0.199050      0.084354      0.201544
O       1.92304      9.65785     13.62485         0.147251     -0.223530      0.651712
O      13.57626      9.58959      0.49753        -0.364540     -0.138565      0.604809
O      13.42155      9.59649     13.56247         0.063816     -0.222572      1.146579
O       1.91985      9.76569      4.96952        -0.144514     -0.515514      0.962057
O      13.49225      9.61177      4.82294        -0.084710     -0.096685      0.930363
O       1.99854      9.60355      9.08814        -0.543654      0.042866      2.713275
O      13.44858      9.61196      9.30468         0.208738     -0.122099      1.055728
O       5.85063      1.84004      0.63581        -0.238709      0.054460      0.835635
O       5.76897      1.86062     13.57705        -0.032590      0.255094     -0.850453
O       5.79338     13.41880      0.58788        -0.150137     -0.022053     -0.041031
O       5.84949     13.37063     13.43936        -0.395586      0.175988      1.566472
O       5.72544      2.05085      4.84945         0.068322     -0.577475      0.879707
O       5.64850     13.52191      4.82211         0.168332     -0.184249      1.189899
O       5.68536      1.95577      9.23429         0.143067     -0.001960     -0.166421
O       5.74546     13.42706      9.18289         0.394851      0.038509      1.551876
O       5.67782      5.75483      0.51015         0.129553     -0.332591      0.756551
O       5.73899      5.65605     13.58478         0.170641      0.443528      1.593826
O       5.72652      5.81784      4.90636         0.124425      0.039094      0.844417
O       5.79829      5.65335      9.20249        -0.064823      0.482838      1.195642
O       5.84097      9.62425      0.52629        -0.227799     -0.102344      1.728338
O       5.75641      9.65753     13.46160        -0.085434     -0.088755      1.542796
O       5.82497      9.44122      4.84788        -0.168438      0.427777      1.219358
O       5.81726      9.66824      9.23996         0.028287     -0.146975      0.637969
O       9.51150      1.85747      0.65645         0.303736     -0.166256     -0.030569
O       9.68363      1.93716     13.61755        -0.143979      0.406113      1.625500
O       9.56756     13.55374      0.56199        -0.045093     -0.500499      0.205407
O       9.52240     13.52640     13.50971         0.154248     -0.236137      1.717051
O       9.62416      1.94031      4.86575        -0.136535     -0.226654      1.236215
O       9.55884     13.58091      4.86055         0.465458     -0.720742      0.945104
O       9.56814      1.93369      9.28095         0.289447      0.013290      0.681536
O       9.56516     13.48045      9.30863         0.113912      0.149500     -0.046847
O       9.67359      5.88880      0.42948        -0.662508     -0.479851      1.458447
O       9.52681      5.80721     13.73601        -0.061531     -0.429085     -0.023908
O       9.60987      5.71094      4.81044        -0.072470      0.115135      1.304995
O       9.67739      5.81052      9.18810        -0.125139     -0.288533      0.801152
O       9.64964      9.70183      0.43854        -0.332932     -0.455051      2.118083
O       9.63043      9.61373     13.60887        -0.227481     -0.129506      0.238741
O       9.72261      9.62855      4.84671        -0.393271      0.234269      0.210643
O       9.76801      9.60039      9.17121        -0.225060     -0.186260      1.380271
O       3.81496      1.98706      2.78513         0.120622     -0.036005     -0.480910
O       3.86183      1.83853     15.72648        -0.607561      0.446065      0.522737
O       3.74802     13.31327      2.65032         1.246212      0.321361     -0.034710
O       3.81540     13.54840     15.59050         0.051811     -0.280045      0.731636
O       0.03799      1.85921      2.67997        -0.651197      0.007256      0.058816
O      15.35430      1.99546     15.73973         0.124814     -0.270782      0.244798
O      15.30567     13.43388      2.76953         0.569668      0.428139     -0.234776
O       0.01501     13.52104     15.79249        -0.422997     -0.107023     -0.360436
O       3.75614      2.02777      6.99622         0.550534     -0.354097     -0.059354
O       3.81731     13.46319      7.11687         0.240531     -0.056248     -0.134590
O      15.28295      1.89384      7.06947         1.192647      0.058397      0.486754
O      15.34316     13.33273      6.93937         0.024354      0.452473      0.659169
O       3.83708      1.90283     11.45198         0.221939     -0.203151     -0.533286
O       3.81450     13.55595     11.26077         0.697213     -0.368426      0.425624
O       0.00446      1.89117     11.42383        -0.504743      0.555225      0.072987
O       0.00132     13.38501     11.44916         0.366424     -0.055254     -0.148208
O       3.82686      5.62111      2.71073        -0.169296      0.357846      0.195080
O       3.79056      5.79482     15.77166         0.199984     -0.355084     -0.222307
O       0.04007      5.95026      2.63180        -0.656749     -0.661983      0.306800
O       0.00677      5.74399     15.76930        -1.124763      0.223861     -0.192990
O       3.82360      5.80762      7.13640         0.225559     -0.222542     -0.563243
O      15.34274      5.80735      7.01448         0.331934      0.108499      0.318632
O       3.77370      5.75701     11.45940         0.531089      0.235028     -0.195760
O       0.07370      5.67109     11.49563        -0.959962      0.324358     -0.229900
O       3.74746      9.65386      2.74066         2.131968     -0.089023      0.089280
O       3.90538      9.59495     15.77641        -0.778810      0.248496      0.069123
O      15.33978      9.51366      2.66657         1.115131      0.219560      0.228889
O       0.04576      9.56213     15.81136        -0.835903      0.294894     -0.241546
O       3.86245      9.52419      7.07452         0.646537      0.446017     -0.086534
O      15.33125      9.61564      7.05529         0.675500     -0.059724      0.515371
O       3.83743      9.59056     11.40831        -0.054709     -0.180547     -0.040393
O       0.04923      9.64561     11.47268         0.241953      0.158997     -0.345661
O       7.72261      1.72193      2.83873        -0.119810      0.253801     -0.134421
O       7.66767      1.97317     15.75980         0.375378     -0.295229      0.137547
O       7.73077     13.53299      2.73969        -1.118054     -0.093835      0.028001
O       7.66040     13.34951     15.76077        -0.042040      0.179933      0.110154
O       7.56711      1.91730      7.14416         1.357043     -0.026930     -0.624557
O       7.60437     13.46151      7.03242         0.993799      0.284610      0.137630
O       7.65947      2.00196     11.41459         0.928994     -0.013700      0.196731
O       7.73972     13.44390     11.44814        -0.833143     -0.341135     -0.493314
O       7.62801      5.78530      2.58085         0.969686      0.067082      0.193134
O       7.61596      5.66636     15.80753        -0.080255      0.262709      0.362375
O       7.70163      5.81520      7.17518         0.060659     -0.047819     -0.552524
O       7.64377      5.76000     11.38640         1.485081     -0.244269      0.375717
O       7.67585      9.52004      2.77378        -0.342385      0.222501     -0.179812
O       7.62825      9.72291     15.75266         0.226147     -0.461801      0.026974
O       7.74976      9.53934      7.07459        -0.088753      0.822048     -0.144936
O       7.70183      9.67071     11.44487         0.105927     -0.486607     -0.452487
O      11.52387      1.97563      2.81415         0.790647     -0.279796     -0.489621
O      11.49362      1.85647     15.95831        -0.283222      0.099225     -0.257575
O      11.50477     13.28574      2.64282         0.280368      0.343912      0.302456
O      11.48229     13.43532     15.68614         0.125830      0.045589      0.143820
O      11.52380      1.90612      7.06575        -0.458887      0.360058     -0.158091
O      11.45214     13.50087      7.12322         1.198366     -0.129082     -0.133681
O      11.49276      1.91715     11.52221         1.597820     -0.070477     -0.180422
O      11.57456     13.49438     11.54964         0.256379     -0.410896     -0.552397
O      11.47554      5.64288      2.53711        -0.218516      0.080794      0.433103
O      11.45127      5.89590     15.77360         1.645714     -0.415110      0.089391
O      11.48486      5.75938      7.17023         0.338046      0.052769     -0.514174
O      11.48453      5.87076     11.36645         1.389198     -0.204693      0.278073
O      11.51365      9.75268      2.64977        -0.066837     -0.793285      0.090378
O      11.57167      9.50379     15.76233        -0.052080      0.491121      0.096964
O      11.60395      9.60957      6.99353        -0.728401      0.067014      0.334070
O      11.49022      9.38090     11.51130         1.061561      0.902636     -0.272290
O       1.76518      3.85841      2.64536         0.357249     -0.322454      0.041379
O       1.76547      3.92899     15.76598         1.258279     -1.602382      0.092809
O       1.96661      0.01063      2.61608         0.000307     -0.466227      0.243199
O       1.90688      0.05326     15.80017        -0.293812     -0.269076     -0.156564
O      13.51667      3.81867      2.75098         0.066051     -0.096111     -0.249429
O      13.29591      3.87304     15.80375         0.285663      0.323629     -0.168042
O      13.42982     15.32689      2.66196        -0.370592      0.403804      0.255312
O      13.40605     15.31873     15.85607         0.210636      0.429642     -0.095201
O       1.84487      3.83980      6.96555        -0.187249     -0.261574     -0.017811
O       1.95268     15.33819      7.09885        -0.513805      0.448547     -0.142514
O      13.45178      3.95580      7.00367        -0.033974     -1.481700      0.386746
O      13.42466     15.35424      7.18959         0.125113      0.148761     -0.322454
O       1.97603      3.82077     11.35778        -0.316171      0.142605      0.183992
O       1.86627      0.00607     11.24382        -0.030557     -0.285142      0.418723
O      13.42205      3.85334     11.55743        -0.075108     -0.465585     -0.107776
O      13.57729     15.34954     11.36988        -0.644110      0.134043      0.071346
O       1.86810      7.76395      2.67370         0.880004     -1.430505      0.351432
O       1.86318      7.70955     15.93837         0.388706     -0.688188     -0.999251
O      13.34547      7.64980      2.69873        -0.045431      0.229334     -0.035070
O      13.47778      7.63185     15.73749         0.084011      0.584279      0.144572
O       1.96412      7.64894      7.11042        -0.733876      0.247272     -0.216529
O      13.40275      7.71193      7.07487         0.383914     -0.404128      0.277824
O       1.88506      7.75157     11.41786         0.046494     -0.751400     -0.132700
O      13.58373      7.67746     11.53506        -0.104871     -0.472761     -0.522706
O       1.81044     11.50151      2.68368         0.023012      0.070301     -0.123686
O       1.95021     11.53653     15.74564        -0.001099      0.214253      0.050613
O      13.52288     11.50651      2.68138        -0.248770     -0.087711      0.052959
O      13.53510     11.57623     15.68115        -0.388777     -0.810460     -0.006473
O       2.01216     11.53356      7.22018        -0.537785     -0.226799     -0.486589
O      13.42836     11.52102      7.09098        -0.082709      0.244810      0.049288
O       2.03196     11.56411     11.47933        -0.573024     -0.668381     -0.347531
O      13.47154     11.43536     11.52357        -0.485993      0.940377     -0.342524
O       5.87159      3.80279      2.81142        -0.229396     -0.216665     -0.453058
O       5.71755      3.77107     15.85755        -0.221087      0.384667     -0.142085
O       5.69276     15.32741      2.87479        -0.207470     -0.380226     -0.573045
O       5.79885     15.27820     15.74145         0.159204      0.772508      0.133262
O       5.74604      3.89988      7.02275         0.222396     -0.725056      0.052483
O       5.70241      0.05138      7.09858        -0.196095      0.165928     -0.303325
O       5.76608      3.87007     11.35747        -0.316373     -0.503566      0.396262
O       5.81854      0.01429     11.34903         0.014066     -0.165579      0.067256
O       5.66438      7.59033      2.71815         0.061548      0.974844     -0.141667
O       5.77461      7.72885     15.73526         0.207294     -0.771980     -0.031198
O       5.86938      7.74417      7.25406        -0.745723     -0.524190     -0.604254
O       5.74226      7.63002     11.40702         0.010229      0.823611      0.033715
O       5.84341     11.47980      2.79052        -0.097102      0.243161     -0.288112
O       5.71798     11.56534     15.71848        -0.191532     -0.304230      0.446716
O       5.78487     11.57346      6.91851        -0.056966     -0.944866      0.358114
O       5.68342     11.49544     11.32708         0.297048      0.590308      0.185386
O       9.49512      3.76245      2.77153         0.132437      0.898624     -0.639676
O       9.68901      3.83451     15.97062        -0.335662     -0.400428     -0.441814
O       9.88536     15.28374      2.79632        -1.229890      0.749550     -0.569295
O       9.59716     15.32659     15.89004        -0.488803      0.677465     -0.391282
O       9.49639      3.87954      7.09416         0.554189     -1.023206     -0.275516
O       9.63667      0.00051      7.03501        -0.634728      0.700896      0.262233
O       9.75689      3.85743     11.40971        -0.644736      0.513402      0.406504
O       9.66026      0.03534     11.44565        -0.302305      0.164337     -0.086902
O       9.57224      7.71622      2.76405         0.417136     -0.834736     -0.672621
O       9.61999      7.70326     15.83200        -0.883113      0.406584      0.100934
O       9.63741      7.69612      6.91143         0.202784     -0.150826      0.368657
O       9.59240      7.64685     11.37456        -0.751895      0.208673      0.357410
O       9.58942     11.51629      2.66509        -0.773887      0.319598      0.463453
O       9.67194     11.45412     15.85168        -0.432216      1.012183     -0.552254
O       9.64827     11.56072      7.12879        -0.275009     -0.191233     -0.520762
O       9.74651     11.49361     11.33517        -0.160631      0.061505      0.365840
