  # total energy = -7881.40808600 
CRSYTAL
PRIMVEC
    15.3600000000000000    0.0000000000000000    0.0000000000000000
     0.0000000000000000   15.3600000000000000    0.0000000000000000
     0.0000000000000000    0.0000000000000000    17.440000000000000
PRESSURE
0.357198 0.447878 -0.061972 -0.211222 -0.371044 -0.022389
PRIMCOORD
320 1
Pb       3.86916      3.80195      4.29659        -0.371705      0.260880     -0.517378
Pb       3.76123      3.87330     17.42140        -0.363767     -0.158733     -0.543541
Pb       3.85660     15.33536      4.29930         0.067095     -0.288681     -0.450690
Pb       3.88937     15.28770      0.01697        -0.252837      0.237539     -1.089124
Pb      15.35143      3.87024      4.31618        -0.244425     -0.210481     -0.825737
Pb      15.24216      3.74735     17.35187         0.152516     -0.163941     -0.257664
Pb      15.33287      0.01686      4.40473        -0.042701     -0.324662     -1.042018
Pb       0.15952      0.04654     17.37405        -0.452214     -0.366154      0.046278
Pb       3.94340      3.84222      8.65772        -0.595972      0.192786     -0.078952
Pb       3.81908     15.32008      8.61457        -0.149299      0.038937     -0.321186
Pb       0.14833      3.78225      8.73196         0.139641      0.124720     -0.553697
Pb       0.06263     15.28746      8.67072         0.125580      0.061440     -0.597946
Pb       3.89774      3.91131     13.11698        -0.529054     -0.519552     -0.596493
Pb       3.98071      0.08793     13.15850        -0.221775     -0.254988     -0.149445
Pb      15.33347      3.87538     12.97334         0.501860     -0.151712     -0.052355
Pb      15.32966     15.32881     13.08488        -0.042463      0.013814     -0.452457
Pb       3.78182      7.64583      4.36699         0.060491      0.197039     -0.456240
Pb       3.89571      7.73015     17.41127        -0.235025     -0.219555     -0.694922
Pb      15.20488      7.59788      4.33226         0.290601     -0.040488     -0.634347
Pb       0.13884      7.57550      0.02099        -0.335339      0.258456     -0.397081
Pb       3.74206      7.69380      8.62107        -0.210720     -0.254787     -0.363079
Pb      15.32030      7.73817      8.64113         0.486051     -0.517300     -0.364789
Pb       3.88178      7.74085     13.06568         0.219985      0.173077     -0.479525
Pb      15.25900      7.70592     12.97175         0.544771     -0.275618      0.219960
Pb       3.92808     11.44379      4.41648        -0.384364     -0.173518     -0.555335
Pb       3.67978     11.55046      0.02197         0.013833     -0.151818     -0.596690
Pb      15.27850     11.36737      4.40855         0.144601      0.328439     -0.810846
Pb       0.05727     11.43641      0.05913        -0.327147      0.150367     -0.233602
Pb       3.84852     11.45056      8.64719        -0.109449     -0.024639     -0.380838
Pb       0.04488     11.63321      8.66238        -0.022026      0.123204     -0.288348
Pb       3.75676     11.55349     13.06535         0.445040     -0.252911     -0.327621
Pb      15.22629     11.47886     12.95520        -0.182337      0.089722      0.301078
Pb       7.58207      3.92910      4.23968         0.238573     -0.476407      0.290964
Pb       7.63064      3.79258      0.04276         0.132626     -0.282919     -0.823044
Pb       7.56781     15.26925      4.36775        -0.172101      0.102675     -0.969456
Pb       7.82642     15.27513      0.01763        -0.528150      0.497438     -0.455175
Pb       7.67473      3.86073      8.63731         0.054670     -0.115592     -0.124342
Pb       7.68842      0.11274      8.72618        -0.430332     -0.159847     -0.166382
Pb       7.59692      3.71487     12.99345         0.045118      0.143138     -0.550991
Pb       7.66016     15.20583     13.12539         0.126232      0.158399     -0.324511
Pb       7.68015      7.77367      4.39906        -0.070109     -0.810503     -0.171692
Pb       7.65371      7.63949     17.39381         0.393070      0.010721     -1.172294
Pb       7.72966      7.53820      8.74855        -0.120476      0.139903     -0.394246
Pb       7.78692      7.69017     13.13825        -0.778814     -0.066073     -0.725804
Pb       7.63681     11.47977      4.34420         0.055266      0.711954     -0.256101
Pb       7.67105     11.42863     17.35183        -0.026863     -0.144323     -0.268925
Pb       7.69754     11.54019      8.77323         0.045163     -0.219936     -0.839042
Pb       7.55073     11.48702     13.04374         0.392067      0.006344     -0.604894
Pb      11.54436      3.92387      4.34120        -0.248457      0.207330     -0.339595
Pb      11.41240      3.80708     17.40386         0.062843      0.157742     -0.062076
Pb      11.56109      0.06000      4.41987         0.049517     -0.421806     -0.802294
Pb      11.59039      0.05324     17.43396         0.073447     -0.394468      0.210537
Pb      11.62398      3.66776      8.68437        -0.548493      0.635633     -0.437937
Pb      11.52449      0.08613      8.71533         0.121015     -0.573125     -0.118895
Pb      11.46203      3.84970     12.92035        -0.148819      0.248112     -0.076127
Pb      11.47896     15.34429     13.13306        -0.283468     -0.384057     -0.819553
Pb      11.52816      7.64136      4.43968        -0.084463     -0.413008     -0.795613
Pb      11.46062      7.73512     17.34180        -0.167062     -0.195248      0.118148
Pb      11.52203      7.65444      8.68933        -0.340841     -0.394304     -0.837157
Pb      11.59233      7.62849     13.12993        -0.338619     -0.184120     -0.559931
Pb      11.43586     11.56425      4.32760         0.452278     -0.057246     -0.634810
Pb      11.55617     11.52594     17.41458         0.293337     -0.089987     -0.145008
Pb      11.45660     11.52534      8.69222        -0.183857     -0.080488     -0.394698
Pb      11.48791     11.58054     13.11882        -0.190864      0.186005     -0.506599
Ti       1.81462      1.90858      2.35689        -0.355141     -0.383830      1.157264
Ti       1.85487      1.88822     15.32011         0.155020      0.167613     -1.163173
Ti       1.90025     13.40187      2.43313        -0.767354     -0.033410     -0.193358
Ti       1.82062     13.39035     15.21930         0.941890      0.174333      1.896971
Ti      13.31529      1.85937      2.29226         1.028330      0.665096      0.173406
Ti      13.20112      1.84651     15.38168         3.126738      0.607224      2.946469
Ti      13.42730     13.37346      2.33174         0.587509     -0.289933     -0.247858
Ti      13.48617     13.41589     15.43018         0.023089     -0.712995     -0.315710
Ti       1.85605      1.85025      6.48535        -0.045826      0.272939     -0.463536
Ti       1.94274     13.35891      6.50425         0.130327      0.555377      1.442490
Ti      13.40945      1.88638      6.57909         0.814678      0.180789      2.589168
Ti      13.29580     13.41493      6.66023         1.570937      0.102039     -0.901625
Ti       1.83211      1.86936     11.07099         0.924117      0.667445      0.706999
Ti       1.87437     13.43722     11.11319        -0.001615      0.044210     -0.655517
Ti      13.35141      1.90411     10.98355         0.537706     -0.631354      0.357178
Ti      13.35873     13.41861     10.96215         0.121344      0.031846      0.504857
Ti       1.86337      5.73918      2.33150         0.385955     -0.417057     -0.671799
Ti       1.81818      5.70371     15.38657         0.230644      0.196050      0.359157
Ti      13.35242      5.65337      2.10576         0.409556      0.467882      3.328891
Ti      13.34816      5.77364     15.34883         0.564734     -0.513324      0.412848
Ti       1.89448      5.60368      6.50015         0.092528      1.328637      2.004316
Ti      13.43679      5.73809      6.71496        -0.605252     -0.421968     -0.283294
Ti       1.89933      5.77754     11.03732         0.335669     -1.242394     -1.475083
Ti      13.39602      5.76560     10.90549        -0.076887     -0.339532      1.236429
Ti       1.89155      9.59140      2.34908         0.320309     -0.224060      0.486523
Ti       1.91129      9.57407     15.40783         0.163372     -0.383884      0.213684
Ti      13.36098      9.46472      2.35331         0.612178      0.790068      0.360320
Ti      13.49626      9.56084     15.37741         0.476751      0.899003      0.983544
Ti       1.78574      9.59961      6.68019         1.792891     -0.873577     -0.201965
Ti      13.35519      9.60436      6.62112         0.382046     -0.626279     -0.571590
Ti       1.83010      9.62237     11.02768         0.938321     -1.058070     -0.734752
Ti      13.28402      9.53510     10.94259         1.115372      0.859523      0.021102
Ti       5.61336      1.87740      2.25986         1.314258     -0.209506      0.584971
Ti       5.68095      1.97642     15.35927         0.464079     -1.463684      0.420724
Ti       5.65339     13.38284      2.10558         0.936836      0.240276      2.352579
Ti       5.71697     13.36186     15.45702        -0.517376      1.236195     -1.375261
Ti       5.67258      1.89378      6.55368         0.301154     -0.239643      1.289423
Ti       5.76944     13.43901      6.69908         0.016550     -0.577089     -0.574996
Ti       5.65669      1.82110     11.00922         0.534292      0.489934      0.819465
Ti       5.73786     13.38501     10.94979        -0.031624      0.111876      1.648200
Ti       5.76910      5.80064      2.26705        -0.716811      0.032346      1.669033
Ti       5.72680      5.67087     15.38560         0.588768      1.221771     -0.218054
Ti       5.74004      5.75941      6.60287        -0.367616     -0.676658      0.456324
Ti       5.71484      5.67852     10.98480         0.433957      0.880403     -0.567150
Ti       5.79884      9.53317      2.27705        -2.022814      0.433783     -0.422061
Ti       5.72855      9.63495     15.33128         0.151855     -0.931441     -0.072881
Ti       5.80645      9.56097      6.74097        -0.985061      0.177655      0.486672
Ti       5.69517      9.58051     10.96150         0.804236     -0.442021      1.362457
Ti       9.52388      1.91589      2.42562        -0.381198      0.406432      0.260497
Ti       9.59140      1.84588     15.26319        -2.018319      0.359725      0.546603
Ti       9.59108     13.50284      2.22603        -0.492775     -0.343474      0.630476
Ti       9.59828     13.35003     15.45811        -0.264556      0.866929     -0.532243
Ti       9.53992      1.80061      6.62043        -0.518376      1.529616      0.086186
Ti       9.58404     13.45871      6.62223        -1.016724     -1.483766      1.891569
Ti       9.57742      1.85538     10.99614        -0.979740      0.423316      1.996925
Ti       9.58393     13.42057     10.93558         0.091885     -0.327985      1.863116
Ti       9.56939      5.75848      2.25458         0.527798      0.166050     -0.316558
Ti       9.57612      5.60544     15.24092        -0.421047      1.316917      1.157769
Ti       9.54057      5.67811      6.66264         0.833834      0.448135      0.192529
Ti       9.50703      5.73507     11.00130        -0.200343     -0.663693     -0.736514
Ti       9.55063      9.63051      2.30992         1.458780     -0.733931      0.000385
Ti       9.67897      9.54728     15.30546        -1.287811      0.002821      2.723358
Ti       9.60781      9.54582      6.55547        -0.834999      0.383207      2.586878
Ti       9.61143      9.57551     10.94911        -1.846269      0.374799      0.232164
O       1.78611      1.95016      0.63998         0.390409     -0.018872     -2.294162
O       1.82246      1.93343     13.49211        -0.175055     -0.243546      1.440560
O       1.80478     13.32910      0.66406         0.317648     -0.063079     -0.306529
O       1.70781     13.43081     13.48351         0.353316     -0.324452     -0.885822
O      13.27076      1.90808      0.51939        -0.222703     -0.374347     -0.390897
O      13.18009      1.77161     13.73484         0.221696     -0.169261     -3.973397
O      13.55893     13.40203      0.55382        -0.518544      0.014238      0.178735
O      13.53458     13.29692     13.64867        -0.448170      0.545342     -0.342221
O       1.73297      1.85004      4.63248         0.212764     -0.066705      2.068927
O       1.98996     13.35502      4.77925        -0.236970      0.221936     -0.729579
O      13.42255      1.94456      4.88288        -0.061921     -0.212904     -2.060641
O      13.25516     13.41807      4.86710         0.014327      0.304927      0.491748
O       1.88606      1.98378      9.32303        -0.132767     -0.382674     -0.850134
O       1.70548     13.40201      9.30397         0.507040     -0.080199      0.484541
O      13.27102      1.89153      9.22856         0.158576     -0.118284     -0.214639
O      13.37248     13.33597      9.18965         0.054380     -0.001317     -0.290566
O       1.86875      5.78146      0.50390         0.154284     -0.184253      0.596391
O       1.62885      5.66263     13.64927         0.509033      0.141623     -0.906913
O      13.37726      5.60472      0.43356        -0.163403      0.394917     -2.824662
O      13.37633      5.93561     13.57925         0.079129     -0.486168     -0.002934
O       1.84647      5.65532      4.77823        -0.070319     -0.122860     -1.216444
O      13.26520      5.71170      4.93686         0.526069     -0.009878     -0.203240
O       1.88677      5.64561      9.21181         0.115058      0.046556      1.002842
O      13.40812      5.75511      9.18593        -0.095971      0.048925     -0.946762
O       1.89200      9.64924      0.54292         0.078614     -0.476315      0.406936
O       1.92065      9.58133     13.67727         0.109571     -0.091588     -1.425959
O      13.55453      9.48178      0.64057        -0.284112      0.349859     -1.558193
O      13.42614      9.52086     13.62587        -0.147257      0.086523     -0.630447
O       1.91381      9.69489      4.93070        -0.200115     -0.540537     -0.096714
O      13.32951      9.45333      4.80352         0.143177      0.081419      0.731693
O       1.89955      9.52103      9.20907        -0.491429      0.364742      0.984970
O      13.35495      9.51008      9.16972        -0.141948      0.073737      0.338669
O       5.76917      1.89368      0.51533        -0.517357      0.117565     -0.527875
O       5.64129      2.04715     13.58167         0.130985     -0.366705     -0.375484
O       5.68337     13.50958      0.37032        -0.262340      0.076912     -0.770191
O       5.80962     13.36297     13.59462        -0.000773     -0.185716      1.234305
O       5.66951      1.89363      4.80094        -0.040751     -0.035512     -0.076766
O       5.78874     13.52676      4.89762        -0.034771     -0.503216      0.366453
O       5.66553      1.64852      9.25746        -0.076873      0.412353     -0.087137
O       5.66774     13.40819      9.22105         0.220635      0.197039     -0.911724
O       5.82094      5.83050      0.52359        -0.006713      0.008398     -1.052398
O       5.77343      5.63272     13.61085        -0.149375     -0.005285      0.190943
O       5.83647      5.73447      4.84484        -0.530918      0.100711     -0.074622
O       5.70967      5.76776      9.18103         0.044877     -0.641557      0.524673
O       5.78631      9.46890      0.49897         0.102464     -0.209330      0.195091
O       5.69936      9.56639     13.54172        -0.054426      0.498984      0.202740
O       5.68849      9.55506      4.98701         0.098058      0.124448     -0.798830
O       5.67660      9.66320      9.23649         0.052516     -0.154653     -1.418707
O       9.72113      2.01512      0.68548        -0.333190     -0.288849     -1.051910
O       9.59388      1.68687     13.52408         0.250491      0.465646     -0.245780
O       9.62743     13.44244      0.43481        -0.146789      0.210785      0.259826
O       9.49258     13.52846     13.68943         0.191338     -0.444846      0.089965
O       9.35307      1.88139      4.87365         0.793062     -0.547703      0.325663
O       9.52391     13.51596      4.91745         0.052822      0.255464     -1.604968
O       9.52992      1.79494      9.27645         0.425936      0.241459     -1.717316
O       9.67111     13.19799      9.22317        -0.122047     -0.027455     -1.446685
O       9.69082      5.67241      0.42867        -0.593239      0.147821      1.607963
O       9.61708      5.62966     13.49157        -0.189010      0.632340     -0.786220
O       9.58057      5.77799      4.91270        -0.007029     -0.226141     -0.603302
O       9.35675      5.74325      9.16847         0.557104      0.166993      0.550957
O       9.64852      9.54672      0.54580        -0.466802      0.430815      0.231250
O       9.62632      9.50031     13.62631         0.118706      0.077902     -2.264507
O       9.56079      9.61862      4.84044         0.053577     -0.243778     -1.681648
O       9.50049      9.59208      9.12019         0.623984      0.138416      1.429049
O       3.71930      1.78289      2.70270         0.874016      0.767879      0.039537
O       3.81317      2.01438     15.69055        -0.649148     -0.048232      0.612192
O       3.80207     13.44146      2.69044        -0.026469      0.000028     -0.065479
O       3.72858     13.41287     15.72186         0.104683     -0.373315      0.205517
O      15.24923      2.00637      2.64662        -0.637339     -0.472937      0.393542
O      15.29395      1.84199     15.78684         0.611285      0.344730     -0.158931
O      15.30984     13.25026      2.84423        -0.439119      0.416429      0.103089
O       0.03499     13.57056     15.73076        -0.039792     -0.453037      0.201244
O       3.75650      1.80776      6.94646         0.399216      0.227482     -0.056894
O       3.83911     13.37826      6.99918        -0.562673      0.574898      0.244965
O      15.34120      1.85162      7.04322         0.107891     -0.024422     -0.176144
O       0.02145     13.35781      6.97424        -0.458583      0.095888      0.199254
O       3.74735      1.90164     11.45035         0.809261     -0.547948     -0.013516
O       3.86840     13.41355     11.45445        -0.985079     -0.116569     -0.179867
O      15.32521      1.87702     11.39175        -1.730306     -0.106097      0.130421
O      15.28245     13.47264     11.36827        -0.892209     -0.632432      0.185097
O       3.76601      5.86109      2.66253         0.679411     -0.422154      0.060869
O       3.86418      5.73475     15.76606        -0.054464     -0.062052      0.141510
O      15.25254      5.69155      2.60065         0.136635     -0.279212      0.345624
O      15.29618      5.70576     15.81187        -0.612313     -0.077591      0.102557
O       3.80267      5.58361      6.91782        -0.009124      0.016974      0.079387
O      15.34331      5.61882      6.96310        -0.153741      0.157775      0.185500
O       3.87012      5.54438     11.37213        -0.978572      0.814925      0.342300
O      15.33039      5.83554     11.23133        -0.839324     -0.373628      0.661179
O       3.85283      9.54152      2.69585        -0.527311     -0.573903      0.224849
O       3.81479      9.63359     15.78384         0.284466     -0.483324      0.359816
O      15.35687      9.56015      2.78140        -0.377841     -0.025757      0.224120
O       0.09461      9.59462     15.79388        -1.831741     -0.306779      0.195528
O       3.72467      9.56186      7.14617         0.607795     -0.277441      0.027789
O      15.27091      9.59120      7.05220         0.278380     -0.059992      0.083185
O       3.83012      9.62892     11.45780        -0.754965      0.134095      0.048547
O      15.31779      9.53933     11.40395        -0.346079     -0.024654     -0.331128
O       7.52070      1.96167      2.69718         0.066979     -0.029211     -0.106848
O       7.57582      1.91083     15.73288         1.497108     -0.059577      0.246342
O       7.61972     13.45701      2.59818        -0.546997     -0.303342     -0.028729
O       7.58912     13.41093     15.86187         0.561763      0.123624      0.130467
O       7.64099      1.93234      7.10800         0.127915     -0.996525     -0.202683
O       7.66946     13.35093      7.07816        -0.091051      0.339094      0.169354
O       7.69784      1.89193     11.42381        -0.817521     -0.154612     -0.101773
O       7.77475     13.25869     11.33724        -1.775827      0.737422      0.123952
O       7.65352      5.83206      2.79815         0.162400     -0.399442     -0.865136
O       7.74874      5.68780     15.79761        -0.833208      0.287130      0.074723
O       7.64120      5.67447      7.00379        -0.474418     -0.181267      0.325926
O       7.58471      5.65134     11.35690         0.141543      0.011991      0.404744
O       7.59608      9.61066      2.74436         1.018602      0.289422      0.096418
O       7.65525      9.67833     15.72209         0.241763     -0.028448      0.122475
O       7.62827      9.56106      6.95509         0.190486     -0.039849      0.246174
O       7.69326      9.56790     11.35441        -0.074205      0.265976      0.235813
O      11.47428      1.86772      2.85071        -0.786337     -0.112650      0.154403
O      11.42361      1.88738     15.79145        -0.972557     -0.495727      0.411211
O      11.47931     13.47845      2.62852        -1.044133      0.247646      0.265449
O      11.49970     13.27826     15.66504         0.246758      0.677609      0.399292
O      11.54288      1.71991      7.04548        -1.538966      0.745637     -0.270858
O      11.48951     13.39383      7.04895        -0.638650     -0.218863      0.232945
O      11.46448      2.04921     11.47561         0.023021     -1.268805     -0.359884
O      11.41232     13.33622     11.43627         1.430040      0.252720      0.323249
O      11.47937      5.70367      2.68039        -0.794732      0.142539      0.049358
O      11.44880      5.85806     15.71798         1.143675     -0.219100     -0.180673
O      11.49273      5.80459      6.95540        -0.322464     -0.204109      0.946285
O      11.46886      5.77167     11.24775         0.220301      0.125531      0.349756
O      11.49289      9.50211      2.65076        -1.493600      0.238010      0.358908
O      11.54972      9.68133     15.82602         0.184400     -0.268172     -0.221444
O      11.51467      9.49871      7.04787        -0.745795      0.089019     -0.108561
O      11.45776      9.41771     11.40099        -0.146916      0.369881     -0.184176
O       1.91688      3.77973      2.71863         0.091039      1.208035      0.201042
O       1.99158      3.81701     15.73100        -0.744356     -0.295659      0.537846
O       1.79723     15.30376      2.61578        -0.351298     -0.263416      0.673642
O       1.96139     15.35752     15.64591        -0.079422      0.053068      0.359609
O      13.27186      3.78762      2.54288         0.028373      0.268638      0.635642
O      13.38727      3.74355     15.68546        -0.294352      1.306416     -0.000527
O      13.34746     15.33870      2.68116         0.335042     -0.242588      0.481846
O      13.44281     15.27521     15.84698        -0.956445      0.720671      0.060210
O       1.87493      3.72958      6.91382        -0.093152     -0.354043      0.204783
O       1.88814     15.33788      6.96601        -0.232533     -0.406602      0.042735
O      13.37387      3.74956      7.12755        -0.181521      0.271649     -0.240626
O      13.39551     15.34180      7.01885         0.297726     -0.845805      0.048505
O       1.81352      3.82219     11.48301        -0.288254      0.292253     -0.021159
O       1.77765     15.26737     11.43686         0.509863      0.658999     -0.038495
O      13.30196      3.76686     11.33122         0.828024      1.477385      0.084614
O      13.24127     15.32712     11.32427         0.172862     -0.015075      0.254967
O       1.80449      7.55980      2.82289        -0.067075      1.411552     -0.192631
O       1.87450      7.57933     15.71930         0.369424      0.842369      0.594728
O      13.39910      7.59563      2.59794        -0.031960     -0.777587      0.639646
O      13.48177      7.74770     15.72730        -0.365619     -1.472665      0.354587
O       1.91806      7.56345      6.94440        -0.473495      0.479134      0.209892
O      13.42141      7.63149      7.05063         0.278553      0.241646      0.230270
O       1.98924      7.61305     11.39937        -0.044230      0.930924      0.306161
O      13.36681      7.69675     11.39194         0.197186     -0.734982     -0.062832
O       1.89819     11.39864      2.85467         0.217439      0.491089     -0.416675
O       1.85762     11.48428     15.84423         0.083054      0.986301     -0.410916
O      13.19836     11.45277      2.66874         0.636887      0.533524      0.389960
O      13.55719     11.52964     15.78061        -0.146547     -0.651029      0.464365
O       2.03138     11.50614      6.98637        -1.076123      0.022490      0.394858
O      13.41447     11.45617      6.82008        -0.315634      0.471105      0.740554
O       1.82148     11.43931     11.53313         0.243632      0.718597     -0.472417
O      13.31392     11.48042     11.34789         0.152996     -0.443937      0.167534
O       5.60734      3.92399      2.70735         0.182187     -0.704702     -0.424394
O       5.83430      3.82217     15.83231        -0.513535      0.671315      0.378163
O       5.57937     15.32745      2.57740         0.511959     -0.110321      0.162948
O       5.52622     15.35838     15.59550         0.525845     -0.184629      0.510771
O       5.71464      3.71897      7.12458         0.071063      0.255604     -0.505755
O       5.71148     15.30531      7.01547         0.234020      0.894499      0.257105
O       5.71088      3.72948     11.42664         0.212926      0.095330     -0.343564
O       5.77829     15.31451     11.53616        -0.007332     -0.176966     -0.261362
O       5.73232      7.65487      2.79447         0.178694      0.496450     -0.272325
O       5.79809      7.72282     15.56162        -0.136652     -0.774234      1.019666
O       5.66327      7.54118      7.06096         0.142682      1.378529     -0.045238
O       5.71562      7.68813     11.32465        -0.241490     -0.677660      0.399435
O       5.51214     11.52053      2.49177         1.149846     -0.419067      0.385969
O       5.64322     11.50079     15.88107         0.388572      0.065509     -0.167491
O       5.62413     11.48967      7.04007         0.525260     -0.248244      0.172882
O       5.80061     11.53778     11.37784        -0.290905     -0.444944      0.133298
O       9.45742      3.81489      2.73111         0.436005      1.029951      0.066857
O       9.65104      3.81116     15.58556         0.031174     -1.258478      0.474689
O       9.34714      0.04129      2.63600         0.843654     -1.091430      0.118356
O       9.50874      0.02862     15.71013         0.391213     -0.723677      0.828406
O       9.56082      3.77291      7.01402         0.482213     -0.818648      0.199280
O       9.55868     15.26312      7.21740        -0.008469      1.018602     -0.613152
O       9.53256      3.83472     11.37361         0.312352     -0.215933      0.181182
O       9.54191     15.32272     11.31125         0.474189     -0.458587      0.134436
O       9.54967      7.68321      2.61549        -0.299097     -0.106557      0.211927
O       9.56204      7.68500     15.69398         0.139931      0.146280      0.109830
O       9.43277      7.64215      6.94371         0.488701      0.323623      0.393276
O       9.36490      7.57632     11.41975         1.005576      1.085817     -0.265181
O       9.50762     11.58068      2.76824         0.257403     -0.466648     -0.301675
O       9.56315     11.52058     15.81689        -0.071497     -0.727634     -0.043080
O       9.44998     11.44923      6.87226         0.948293      0.426567      0.567660
O       9.61265     11.47340     11.58422         0.356474     -1.114868     -0.753149
