  # total energy = -7879.46046611 
CRSYTAL
PRIMVEC
    15.3600000000000000    0.0000000000000000    0.0000000000000000
     0.0000000000000000   15.3600000000000000    0.0000000000000000
     0.0000000000000000    0.0000000000000000    17.440000000000000
PRESSURE
-0.80362 -0.811547 -6.33594 0.130472 0.34145 -0.07356
PRIMCOORD
320 1
Pb       3.80528      3.77968      4.42165         0.064175      0.165147     -0.621798
Pb       3.87744      3.72924     17.39468        -0.093675      0.356277      0.108303
Pb       3.76427     15.29724      4.41504         0.297692     -0.223563     -0.405697
Pb       3.76328     15.32336     17.35631         0.358450      0.137472      0.077574
Pb       0.05607      3.75713      4.39956        -0.355789      0.271726     -0.404998
Pb       0.15374      3.85955      0.06751        -0.261790     -0.044262     -0.374283
Pb       0.07235     15.27985      4.31706        -0.026793      0.390190     -0.324481
Pb      15.14117     15.25511      0.01795         0.606723      0.125286     -0.597090
Pb       3.72027      3.88913      8.71605        -0.053870      0.297912     -0.545991
Pb       3.84245      0.01459      8.78173         0.041325     -0.155104     -0.730877
Pb      15.11963      3.98540      8.68833         1.020293     -0.045602     -0.390074
Pb      15.20192      0.12961      8.78009         0.359431     -0.635575     -0.510847
Pb       3.81709      3.74480     12.92936         0.002812      0.316248      0.517711
Pb       3.70198     15.29282     12.89884         0.044697      0.344979      0.197965
Pb       0.03235      3.67579     13.13726         0.375378      0.704093     -0.034548
Pb       0.01234     15.31880     13.00036         0.231810     -0.105262     -0.174663
Pb       3.86156      7.64271      4.31307         0.317344      0.382868     -0.189250
Pb       3.68226      7.55580     17.40926         0.888402      0.186198     -0.077527
Pb       0.16867      7.76958      4.32751        -0.402616      0.022649     -0.120319
Pb      15.20861      7.68174     17.38638         0.389466      0.049946     -0.397657
Pb       3.90787      7.69674      8.73764        -0.651017     -0.203576      0.442580
Pb      15.34132      7.65272      8.72490         0.258877      0.057162     -0.507943
Pb       3.78458      7.56601     13.01468         0.415541      0.237503      0.061296
Pb       0.03794      7.61671     13.16610        -0.017097      0.040278     -0.403628
Pb       3.69350     11.52664      4.32088         0.328521     -0.136112      0.051118
Pb       3.92973     11.41421     17.34091        -0.243888      0.232339      0.067354
Pb       0.02413     11.63710      4.25907         0.060822     -0.756505      0.040352
Pb      15.20817     11.50991     17.31310         0.711592      0.226889     -0.139156
Pb       3.80081     11.56077      8.73801         0.115487     -0.243779     -0.580522
Pb      15.27544     11.38535      8.75782         0.509065      0.153763     -0.483330
Pb       3.88257     11.44474     12.97652         0.426183     -0.044808      0.005030
Pb       0.15799     11.50559     13.13688        -0.249548      0.066390     -0.701256
Pb       7.73095      3.67024      4.40968        -0.338472      0.281782     -0.825536
Pb       7.59039      3.84026     17.42213         0.125312      0.258731     -0.214936
Pb       7.74867     15.32217      4.41750        -0.512064      0.148676     -0.748383
Pb       7.48968     15.31814     17.39414        -0.099670      0.429720     -0.293613
Pb       7.65538      3.84872      8.69501        -0.135369      0.203612     -0.484537
Pb       7.66187     15.29058      8.63378        -0.295747      0.150108     -0.089135
Pb       7.82900      3.99333     13.20052        -0.293506     -0.300074     -0.706164
Pb       7.58084      0.19130     13.00854         0.629512     -0.319176     -0.034391
Pb       7.66270      7.50980      4.29216        -0.371055      0.083907      0.041290
Pb       7.54767      7.69547      0.00092         0.189084      0.077766     -0.352134
Pb       7.62894      7.79423      8.68701         0.311870     -0.438861     -0.168068
Pb       7.59076      7.64417     12.96325         0.034026      0.205611      0.450934
Pb       7.71908     11.39948      4.40382        -0.117011      0.646832     -0.244408
Pb       7.55793     11.58590     17.39252         0.019415     -0.526383     -0.213940
Pb       7.65442     11.53003      8.69127        -0.091975     -0.048111     -0.115512
Pb       7.78256     11.55712     13.01302        -0.216535     -0.063424     -0.199673
Pb      11.48508      3.73342      4.32717        -0.021466      0.602588     -0.413589
Pb      11.62722      3.80572      0.09462        -0.263916     -0.003301     -0.466003
Pb      11.55135     15.25569      4.33363        -0.160695     -0.193902     -0.430052
Pb      11.35212     15.24205     17.43379         0.188474      0.444569     -0.522025
Pb      11.44880      4.03126      8.71720        -0.062035     -0.290931     -0.645704
Pb      11.44998     15.32218      8.67236         0.172382     -0.076721     -0.155857
Pb      11.59167      3.69812     13.29041        -0.647266      0.138957     -1.097653
Pb      11.50195     15.33198     13.04822        -0.147294      0.160911     -0.932431
Pb      11.49943      7.68934      4.21557         0.359379     -0.496334      0.415258
Pb      11.46892      7.60364      0.07485        -0.343642      0.383056     -0.757913
Pb      11.53419      7.69293      8.70477         0.069064      0.210248     -0.851530
Pb      11.40821      7.64677     13.11121         0.113382      0.015120     -0.641260
Pb      11.56913     11.39637      4.33753        -0.130391      0.644859     -0.205386
Pb      11.32569     11.46403     17.39350         0.359149      0.084904      0.066396
Pb      11.55509     11.52842      8.77399         0.006499     -0.254934     -0.549254
Pb      11.50366     11.44874     13.02632        -0.063483     -0.015954     -0.671819
Ti       1.84015      1.92493      2.24739         0.788885     -0.511065      0.567181
Ti       1.87523      1.88921     15.43961        -0.062533     -0.254038     -1.766071
Ti       1.90898     13.49680      2.17408         1.065450     -0.585992      0.130603
Ti       1.98804     13.47864     15.31949        -0.695812     -0.977824      1.123941
Ti      13.35038      1.86823      2.24972         0.619735      0.532922     -0.897464
Ti      13.37000      1.91222     15.41422         0.466653     -0.684797      2.118406
Ti      13.43254     13.34383      2.25359        -0.864741     -0.401174     -0.357943
Ti      13.38862     13.48113     15.25044         0.981239     -0.595773      0.070378
Ti       1.84353      1.86135      6.65152         0.252318      0.737740     -0.643655
Ti       1.90620     13.45573      6.75939         0.497497     -1.058273     -0.381304
Ti      13.39230      1.90494      6.65233        -0.030207      0.372821     -0.521014
Ti      13.47940     13.39628      6.62880         0.203993     -0.243416     -0.128499
Ti       1.82536      1.94067     10.93923         0.957651     -0.344779      0.342646
Ti       1.92095     13.40177     10.90687        -0.137512      0.162726     -0.528644
Ti      13.45779      2.01791     10.98821        -1.123479     -0.765859     -0.181565
Ti      13.45452     13.41271     10.95537         0.288841     -0.439395     -1.023149
Ti       1.93315      5.75971      2.31538         0.517231     -0.096581     -0.859764
Ti       1.93684      5.72069     15.38010         0.425160     -0.282997     -1.043067
Ti      13.50595      5.79217      2.26279        -0.185749     -0.711905      0.605453
Ti      13.43849      5.71024     15.36168         0.266038      0.357580     -0.887069
Ti       1.95882      5.77724      6.56604        -0.931110     -0.079478      0.431169
Ti      13.43047      5.78666      6.55720         0.629133      0.478883     -0.997475
Ti       1.85415      5.70628     11.07376         0.952347      0.362288     -2.269870
Ti      13.46378      5.77839     11.03213        -0.451522      0.483798      1.105339
Ti       1.96593      9.65960      2.19458         0.164334     -0.531395     -0.152196
Ti       2.05251      9.58045     15.40247        -0.248892      0.273532     -0.474847
Ti      13.40783      9.55377      2.24402         0.785915      0.123922      0.196467
Ti      13.46643      9.65649     15.36025        -0.169685     -0.350422     -1.382962
Ti       1.98105      9.50862      6.77662        -0.368507      0.872539     -0.354038
Ti      13.42766      9.60476      6.59490         0.451860     -1.014503     -0.597483
Ti       1.94833      9.56879     11.01929         0.307386     -0.543095     -2.088622
Ti      13.51561      9.52698     11.04548        -0.432772      0.937553     -0.436378
Ti       5.58907      1.88651      2.33818         1.015458     -0.238852     -0.373950
Ti       5.70450      1.99053     15.22191        -0.125733     -0.116393      0.214503
Ti       5.71644     13.45387      2.29040        -0.379608      0.477422      0.160104
Ti       5.75380     13.54928     15.20756        -0.339632     -0.756140     -0.893382
Ti       5.68346      1.87675      6.64460         0.254910      0.200824     -0.662868
Ti       5.76716     13.40622      6.60802        -0.453417     -0.066526     -0.115151
Ti       5.69068      1.90220     11.00655         0.402959      0.726560     -0.244506
Ti       5.79993     13.47860     11.00428         0.210264     -0.871663     -0.639954
Ti       5.79151      5.70846      2.29805        -0.278106      0.396366     -0.428606
Ti       5.78014      5.72865     15.37773         0.083298      0.830851     -1.463854
Ti       5.72710      5.81122      6.71748         0.274607     -0.893586     -0.644962
Ti       5.74377      5.67781     11.01638        -0.138997      0.680014     -1.178211
Ti       5.80288      9.66669      2.34339        -1.320702     -1.138295     -1.622700
Ti       5.85386      9.62491     15.34049        -0.435800     -0.659534     -1.025483
Ti       5.77442      9.59577      6.64798        -0.908459      0.658073     -0.461217
Ti       5.79798      9.58725     11.03812         0.392119     -0.195132     -0.231164
Ti       9.50399      1.89156      2.22009        -0.508788      0.081870      0.247490
Ti       9.52701      1.94091     15.39492        -0.208413      0.251359     -0.992518
Ti       9.55989     13.42762      2.20835         0.209204     -0.457024      0.983889
Ti       9.53119     13.43710     15.35257        -0.431687      0.175277     -1.898931
Ti       9.57459      1.95214      6.72241        -0.171476     -0.261475     -0.605789
Ti       9.63152     13.38688      6.66038         0.701956     -0.391485     -0.973084
Ti       9.62440      1.96903     10.92708        -0.041128      0.349089      0.251830
Ti       9.65217     13.46733     10.99870        -0.028026     -0.259552     -0.166859
Ti       9.64529      5.77350      2.24413        -0.870363     -0.881490     -0.159786
Ti       9.60417      5.76496     15.40763        -0.799650      0.637588      0.629485
Ti       9.55713      5.78701      6.55845         0.704825      0.708562     -0.111263
Ti       9.57392      5.80063     10.94901        -0.094271     -0.659136     -0.964726
Ti       9.55742      9.64855      2.35057        -0.134795     -0.056481     -1.853780
Ti       9.61844      9.60986     15.35347        -1.459328     -0.713897      0.372368
Ti       9.62216      9.58898      6.53194         0.579241     -0.405492      1.050816
Ti       9.64644      9.58854     10.93210        -0.631859      0.385701     -0.504429
O       2.04390      1.89099      0.46661        -0.757977      0.142884      0.133918
O       1.79864      1.87637     13.43821         0.402331      0.051771      3.235971
O       1.95691     13.46004      0.41060        -0.313237      0.058589      0.437461
O       1.98827     13.53628     13.56084        -0.228626     -0.261651     -0.115456
O      13.36295      1.96205      0.37439        -0.211333     -0.389497      2.163869
O      13.27973      1.87995     13.67488         0.374256     -0.025455     -1.005253
O      13.45590     13.14991      0.41421        -0.141388      1.074306      1.625254
O      13.56250     13.60590     13.44834        -0.696906     -0.546190      0.992192
O       1.81998      1.83581      4.77275        -0.061782      0.048526      1.813759
O       2.15524     13.38666      4.89553        -1.247421      0.321896      1.513089
O      13.39374      1.84211      4.81475         0.087984      0.088520      1.069917
O      13.47748     13.35032      4.71840        -0.046548      0.325589      1.934279
O       1.80400      1.92640      9.16048         0.166313      0.165761      0.424628
O       1.83358     13.45427      9.11791         0.452478     -0.006067      0.523339
O      13.47918      2.03124      9.19711        -0.157953     -0.218561      1.005802
O      13.52117     13.40077      9.06406        -0.374127      0.328904      2.061066
O       1.90628      5.57903      0.43056         0.067152      0.657650      1.532114
O       1.92763      5.78397     13.51622        -0.265324     -0.384734      1.282129
O      13.34356      5.77565      0.42929         0.386712      0.130984      0.621990
O      13.56570      5.70267     13.50277        -0.567379      0.439564      2.039923
O       1.84288      5.87603      4.73956         0.293346     -0.400827      0.792542
O      13.55886      5.80803      4.74837        -0.252858     -0.241138      0.996341
O       1.89436      5.69538      9.16058         0.167819     -0.444159      2.202150
O      13.46049      5.85773      9.25218        -0.166885     -0.530126      0.689080
O       1.97661      9.68454      0.39442        -0.082907     -0.586970      0.656081
O       2.16167      9.47952     13.56796        -0.815918      0.459865      0.786595
O      13.37114      9.55195      0.42323         0.205251      0.078661      0.646498
O      13.45334      9.58394     13.49575        -0.005250      0.257807      1.693116
O       2.09774      9.42506      4.92593        -0.626698      0.462199      1.217864
O      13.46960      9.61403      4.73555         0.016660     -0.089653      1.742325
O       1.86653      9.52201      9.08496         0.235201      0.174759      3.159067
O      13.44926      9.36254      9.22720        -0.004952      0.755128      1.375964
O       5.58727      1.81434      0.51859         0.397023      0.181246      1.078496
O       5.70001      2.06283     13.43151         0.107153     -0.617933      0.588092
O       5.71562     13.48017      0.47730         0.258931      0.186651      0.916897
O       5.79848     13.42779     13.35541         0.003783      0.429483      1.939426
O       5.70333      1.77342      4.80870        -0.019254      0.710786      1.430015
O       5.69419     13.42339      4.79652         0.256037     -0.078665      1.086532
O       5.63442      1.90376      9.22912         0.427580     -0.098030      0.191386
O       5.88129     13.48030      9.13533        -0.134644      0.109282      2.008131
O       5.80439      5.79217      0.46518        -0.058325     -0.238697      1.124467
O       5.90280      5.68643     13.48065        -0.424666      0.042943      2.047585
O       5.77821      5.90609      4.92076         0.019042     -0.424467      0.666002
O       5.70616      5.77722      9.11349         0.369231     -0.415375      1.670449
O       5.77435      9.55590      0.42004         0.125735      0.385857      2.249517
O       5.79700      9.66583     13.47248        -0.008628     -0.085149      1.638886
O       5.63106      9.62727      4.83635         0.710652      0.040783      1.412936
O       5.86516      9.54831      9.21309        -0.065962      0.204641      0.887217
O       9.47360      1.86791      0.43543         0.132402      0.209548      0.279999
O       9.60334      2.03548     13.52662         0.221395     -0.576973      1.735477
O       9.54117     13.26285      0.41716         0.083031      0.641854      0.158635
O       9.43278     13.38800     13.47430         0.721106      0.531169      2.022654
O       9.55832      1.77840      4.86577         0.188134      0.348798      1.216890
O       9.80793     13.36874      4.85263        -0.561443      0.892558      0.987900
O       9.61465      2.12423      9.10331         0.067515     -0.232102      1.043305
O       9.76033     13.29650      9.19131        -0.208859      0.189985      0.128743
O       9.42751      5.68179      0.41898         1.064808      0.074484      1.789445
O       9.50245      5.75836     13.61226         0.379322      0.376452      0.217255
O       9.70331      5.76574      4.73708        -0.361647      0.117844      0.825850
O       9.55476      5.70510      9.06404         0.179453      0.092801      1.962738
O       9.51278      9.68522      0.47518         0.314613      0.332021      2.032161
O       9.57769      9.60061     13.57440         0.502107     -0.184357      0.136304
O       9.59244      9.57719      4.74115         0.186302     -0.081274      0.087769
O       9.66949      9.68346      9.08251        -0.082823     -0.160579      1.856311
O       3.74323      2.01209      2.71282         0.457042      0.253642      0.179404
O       3.80984      1.92893     15.79199        -0.512711     -0.459948     -0.646184
O       3.78970     13.39592      2.68306         0.690222     -0.063140     -0.408727
O       3.87867     13.48529     15.73729        -0.085593      0.174141     -0.493491
O      15.35074      1.74272      2.63104        -0.865168     -0.094869     -0.153328
O      15.30896      1.88549     15.88934         0.598174      0.265090     -0.612600
O       0.00917     13.50131      2.66459         0.093731     -0.092285     -0.185661
O      15.32805     13.32891     15.70576         0.107071      0.226045     -0.139281
O       3.77961      1.79991      7.08688         0.215551      0.434948     -0.289566
O       3.90362     13.43595      7.15108        -0.802352      0.189337     -0.118713
O      15.34804      2.01481      7.15522        -0.179124     -0.257615     -0.794015
O       0.02829     13.43586      7.05223        -0.447612     -0.243729     -0.743720
O       3.72256      1.89951     11.27192         0.996014     -0.325157      0.179779
O       3.84831     13.50523     11.32864         0.438594      0.192583     -0.349612
O       0.03775      2.03134     11.52915        -2.026857     -0.507155     -0.889713
O       0.10587     13.29429     11.39479        -1.416691      0.297554      0.161205
O       3.89659      5.67896      2.71586        -0.120167     -0.578806     -0.101735
O       3.83480      5.69891     15.78311         0.148194      0.330829     -0.278191
O       0.05026      5.87303      2.61109        -0.169266      0.255102     -0.346676
O      15.33186      5.71266     15.83632        -0.236635     -0.095513     -0.275906
O       3.83182      5.76355      7.10334        -0.106291      0.039271     -0.472925
O      15.35152      5.76660      7.10659         0.166365     -0.327655     -0.551157
O       3.86138      5.76266     11.37363        -0.039632     -0.241489      0.077603
O       0.04635      5.69439     11.41095        -1.219422     -0.064795      0.048129
O       3.84374      9.61995      2.72489         0.752111      0.331553     -0.551093
O       3.85485      9.51687     15.87279         0.457338     -0.116769     -0.449267
O       0.11107      9.52548      2.61571        -0.425434     -0.361410     -0.148465
O       0.00306      9.67933     15.75013        -0.192409     -0.559532     -0.343276
O       3.86175      9.63274      7.27281         0.365265     -0.256915     -0.808157
O      15.32059      9.58378      7.19564         0.074104     -0.225850     -0.980398
O       3.88278      9.44319     11.42193        -0.423121      0.771341     -0.469761
O       0.08687      9.75954     11.44535        -0.000387     -0.288205     -0.005068
O       7.59357      1.85078      2.77426         0.989264     -0.060989     -0.285622
O       7.55504      2.02490     15.60426         0.805592      0.000423      0.280445
O       7.76276     13.55789      2.68792        -1.120260     -0.290022     -0.153921
O       7.55304     13.48402     15.78232         0.148535     -0.391284     -0.184966
O       7.65607      1.91338      7.04996        -0.012263     -0.077671     -0.013124
O       7.73485     13.43697      6.97149        -0.241416     -0.200540     -0.005747
O       7.77664      1.87997     11.35305        -0.615048      0.179054     -0.372343
O       7.82398     13.40148     11.29151        -1.918018      0.370607     -0.063191
O       7.70662      5.74822      2.79068         0.619855      0.080003     -0.470254
O       7.67700      5.68703     15.85789        -0.756723     -0.173203     -0.520761
O       7.71644      5.85971      6.97502        -0.639122      0.032586     -0.057038
O       7.60010      5.76815     11.37581         1.108467     -0.455988     -0.307457
O       7.69092      9.65221      2.76893        -0.127894     -0.440511     -0.148201
O       7.68561      9.54099     15.79450        -0.616937      0.839747     -0.316145
O       7.71356      9.71938      6.98332        -0.420734     -0.692266     -0.219954
O       7.73782      9.61990     11.26928        -0.243967      0.222924      0.107413
O      11.48507      2.05000      2.63481         0.464864     -0.643020     -0.271240
O      11.42362      1.83274     15.83102         0.184647     -0.125205     -0.226606
O      11.55016     13.23692      2.64255        -0.126974      0.380805     -0.386707
O      11.47074     13.54373     15.68965        -0.461160     -0.079239     -0.283109
O      11.46347      1.99935      7.06079         0.668794     -0.556395     -0.246322
O      11.60336     13.51401      7.03742        -0.090075     -0.056927     -0.096715
O      11.54224      1.97109     11.50101         0.320388      0.024462     -0.354699
O      11.52783     13.33525     11.39509         0.728345      0.639803      0.223322
O      11.60711      5.75696      2.67400        -0.924413     -0.361523     -0.480923
O      11.50043      5.76256     15.75329         0.681949      0.214549     -0.114815
O      11.59733      5.72639      6.95713        -1.081436      0.057690      0.276975
O      11.48132      5.99813     11.33167         0.666034     -0.296546     -0.065969
O      11.52416      9.55912      2.65405        -0.198613      0.797527     -0.263128
O      11.39800      9.74232     15.84644         1.346038     -0.945012     -0.618454
O      11.56457      9.57427      7.08577        -0.171217      0.176262     -0.574181
O      11.56243      9.60944     11.41429        -0.393559     -0.706447     -0.038743
O       1.75966      3.79835      2.73553         0.279255      0.248293     -0.139936
O       2.01703      3.79765     15.80822        -1.124719     -0.541892     -0.395111
O       2.07271     15.34751      2.73800        -0.875117     -0.110254     -0.574866
O       1.82049     15.31330     15.79253         0.285563      0.708612     -0.209594
O      13.57945      3.84671      2.61202        -0.230384     -0.483681     -0.092169
O      13.37930      3.77764     15.73408        -0.274998      0.872358     -0.182496
O      13.27189     15.27828      2.57443         0.305606      0.503519     -0.332619
O      13.48061     15.30158     15.87421        -0.572897      0.136619     -0.456299
O       2.03049      3.88679      6.73940        -0.201645     -0.865012      0.372188
O       1.84939     15.35640      7.06597         0.069726     -0.002739     -0.232908
O      13.41519      3.83019      7.08329         0.061598     -0.038762     -0.458001
O      13.51789      0.00592      7.08865        -0.341020      0.373574     -0.475391
O       1.97775      3.81088     11.47985        -0.440062      0.095045     -0.568201
O       1.84269     15.30418     11.41112        -0.063135      0.675007     -0.576910
O      13.37068      3.88419     11.48054         0.239726     -0.085741     -0.448978
O      13.44160      0.00520     11.30054         0.321003      0.497785     -0.015480
O       2.23769      7.60958      2.65198        -1.522203      0.557689     -0.867350
O       1.96313      7.55471     15.68402        -0.570376      1.228765      0.538040
O      13.38749      7.69834      2.68926         0.410022     -0.125604     -0.630338
O      13.44397      7.73697     15.73741        -0.207448     -0.782151     -0.067936
O       1.89661      7.63010      7.12221         0.280476      0.166058     -0.410967
O      13.42759      7.66435      7.04679         0.057119      0.045065     -0.356987
O       1.93103      7.61395     11.39997        -0.428130      0.909922      0.071194
O      13.65005      7.73851     11.47241        -0.285494     -1.348341      0.061281
O       1.94686     11.51880      2.67254        -0.485574      0.360294     -0.206916
O       2.03801     11.46653     15.67595        -0.164502      0.579168     -0.380174
O      13.58292     11.41366      2.72161        -0.180856      0.636769     -0.505808
O      13.36436     11.53869     15.63292        -0.036579      0.079116     -0.105402
O       1.94487     11.43487      7.17334        -0.116294      1.084003     -0.481921
O      13.44722     11.47039      7.06373        -0.008440      0.857947     -0.387383
O       2.05995     11.52952     11.36124         0.124738     -0.921113      0.113980
O      13.36286     11.55474     11.19982         0.483445     -0.538542      0.468188
O       5.85952      3.85359      2.68632        -0.289882     -0.652358      0.150536
O       5.66368      3.85245     15.82632         0.335509     -0.312802     -0.313762
O       5.65123     15.35667      2.73646         0.081671     -0.253443     -0.298494
O       5.74249      0.09831     15.62416         0.034980     -0.925071     -0.154122
O       5.79598      3.82403      6.95819        -0.351044     -0.183115      0.048443
O       5.75309     15.31966      7.03367         0.355737      0.320630      0.097515
O       5.72440      3.78018     11.42252         0.029491      0.310312     -0.753909
O       5.76878      0.03724     11.45769         0.122855     -0.354324     -0.418880
O       5.81823      7.69605      2.77063        -0.012196     -0.014607     -0.509812
O       5.78550      7.66908     15.67832        -0.069887     -0.415534      0.010527
O       5.63829      7.69785      7.16865         1.104149      0.736509     -0.713747
O       5.84712      7.68086     11.45435        -0.472231     -0.149460     -0.623622
O       5.81041     11.55238      2.59538         0.239854     -0.078701      0.110098
O       5.68619     11.52067     15.74817         0.345653      0.249300     -0.468493
O       5.73413     11.53342      7.15659         0.316924     -0.421198     -0.524720
O       5.73264     11.56766     11.40363         0.062297     -0.182482     -0.600433
O       9.60762      3.79190      2.67223        -0.239533      0.321138     -0.015674
O       9.57008      3.87341     15.68005         0.170393     -0.999967      0.259526
O       9.63907     15.34854      2.50816         0.739429     -0.231667      0.329496
O       9.30671     15.34530     15.71696         1.026912      0.338221      0.163070
O       9.57529      3.92956      6.92742        -0.103311     -1.167851      0.057210
O       9.56751     15.32238      7.22182         0.442534      0.523708     -0.670363
O       9.61292      3.95181     11.47249         0.219903     -0.421081     -0.592705
O       9.74056      0.03097     11.24822        -0.039655      0.084477     -0.012564
O       9.70945      7.67619      2.50019        -0.439425     -0.095284      0.248037
O       9.44997      7.68623     15.86072         1.186494     -0.071313     -0.486674
O       9.68883      7.71848      7.02580        -0.341268     -0.128122     -0.401670
O       9.44704      7.66089     11.38368         0.721347      0.658736     -0.170545
O       9.51375     11.54874      2.83209         0.407128     -0.529902     -0.711954
O       9.46242     11.57807     15.68558         0.148930     -0.162606      0.095104
O       9.71174     11.48804      6.83549        -0.066174      0.379007      0.498183
O       9.61310     11.46430     11.52748         0.485065     -0.188161     -0.748611
