  # total energy = -7865.20307166 
CRSYTAL
PRIMVEC
    15.010000000000000    0.0000000000000000    0.0000000000000000
     0.0000000000000000   15.010000000000000    0.0000000000000000
     0.0000000000000000    0.0000000000000000    16.400000000000000
PRESSURE
17.1471 17.505 9.02559 -0.002359 0.224123 -0.071876
PRIMCOORD
320 1
Pb       3.57480      3.71139      4.03086         0.652574      0.363135      0.602317
Pb       3.85485      3.68091     16.39302        -0.870642      0.397995     -0.209989
Pb       3.75737     14.95587      4.12233         0.199268      0.134873      0.104758
Pb       3.68739      0.02909     16.38745        -0.058372     -0.238575     -0.183387
Pb      15.00594      3.73916      4.16679         0.184463     -0.157621     -0.457310
Pb       0.00143      3.86240      0.08083         0.147617     -0.326122     -0.160129
Pb       0.02814     14.94903      4.10307        -0.094269      0.380668      0.401012
Pb      14.94641      0.03223     16.31471         0.284564     -0.316851     -0.215237
Pb       3.90743      3.67344      8.20491        -0.732574      0.930415      0.181104
Pb       3.85102     14.95553      8.35295        -0.794212      0.286097     -0.938139
Pb       0.09710      3.66173      8.10524         0.303278      0.478020      0.547458
Pb       0.14199      0.04957      8.30499         0.101299     -0.156369      0.182083
Pb       3.84609      3.78230     12.36171         0.067113     -0.044039     -0.534982
Pb       3.81210      0.05487     12.26407        -0.740372     -0.553622      0.536563
Pb      14.98456      3.68488     12.27126         0.240447     -0.037620      0.059802
Pb      14.90675     15.00558     12.27489         0.601639      0.070816      0.480829
Pb       3.57048      7.62990      4.10194         0.711439     -0.813763      0.552860
Pb       3.74360      7.48550     16.37429         0.036929      0.191915     -0.229659
Pb      14.86336      7.45631      4.11407         0.146040      0.117568     -0.105253
Pb      15.00526      7.47602      0.03919        -0.244571      0.010811     -0.504089
Pb       3.66162      7.47900      8.32760         0.108158     -0.180370     -0.747227
Pb      14.94929      7.44296      8.10981         0.413376      0.111347      0.221728
Pb       3.81814      7.42691     12.37424        -0.755273      0.272846     -0.304341
Pb       0.14084      7.50023     12.31910        -0.307710     -0.298262     -0.117258
Pb       3.63915     11.27685      3.91232         0.010243      0.572287      1.294344
Pb       3.68804     11.29131      0.10292         0.145529     -0.272926     -0.869997
Pb      14.81553     11.26945      4.17969         1.068354      0.218817     -0.254825
Pb      14.97566     11.13511     16.35959        -0.209254      0.798346      0.363671
Pb       3.61890     11.15404      8.24922         0.084167     -0.086490     -0.244002
Pb      14.89589     11.17130      8.26335         0.078476      0.062805      0.035618
Pb       3.73955     11.20348     12.43210        -0.253676      0.237293     -0.234167
Pb      14.98774     11.18689     12.29758         0.018330      0.356495     -0.600122
Pb       7.46782      3.72240      4.23699        -0.022099     -0.351939     -0.171657
Pb       7.46638      3.80803      0.06084         0.257373     -0.405771     -0.442030
Pb       7.42195      0.04737      4.14278         0.149108      0.246721      0.089561
Pb       7.54802      0.03201      0.04448         0.099573      0.082616     -0.057562
Pb       7.60204      3.84596      8.30083        -0.529882     -0.515333     -0.825896
Pb       7.42433     14.75121      8.36543         0.892284      1.341312     -0.995987
Pb       7.58720      3.60069     12.35002        -0.136632      0.483043     -0.443139
Pb       7.50095      0.02111     12.29090        -0.109380      0.234992      0.845950
Pb       7.40548      7.50034      4.14670         0.183347     -0.186494     -0.234391
Pb       7.45855      7.48175      0.13515         0.429259      0.047324     -0.261373
Pb       7.49390      7.56140      8.15654        -0.317746     -0.240381     -0.133582
Pb       7.54491      7.34679     12.32479         0.388482      0.228610     -0.404802
Pb       7.21559     11.29825      4.11735         0.961637     -0.011346      0.186817
Pb       7.46796     11.25735      0.09410        -0.008440     -0.072915     -0.641341
Pb       7.39622     11.13493      8.35331         0.075744      0.031111     -0.596444
Pb       7.52191     11.17490     12.50265        -0.512590      0.087230     -0.073705
Pb      11.43411      3.70846      4.15885        -0.607365     -0.667633     -0.372518
Pb      11.20426      3.80400      0.03988         0.216928     -0.423535     -0.156645
Pb      11.26365      0.03127      4.18691        -0.115987      0.557637     -0.516290
Pb      11.20791      0.02526     16.38367         0.113265     -0.355687      0.081583
Pb      11.31693      3.77610      8.22070         0.247838     -0.367512     -0.343165
Pb      11.34617     14.93560      8.23583        -0.573899      0.271409     -0.025578
Pb      11.33388      3.75300     12.34371        -0.156635     -0.185878     -0.251211
Pb      11.26218     14.89562     12.24910         0.571119      0.355632      0.104291
Pb      11.01631      7.42649      4.13671         0.666059     -0.128659     -0.653168
Pb      11.20382      7.48510      0.01767         0.289659     -0.421590      0.602946
Pb      11.18738      7.51759      8.22848         0.149386      0.132011     -0.853225
Pb      11.24165      7.49281     12.42576         0.003927     -0.366080     -0.707564
Pb      11.11106     11.34681      4.23714         0.130062     -0.087605     -0.875451
Pb      11.10620     11.34294      0.07117         0.634672      0.015012      0.016990
Pb      11.13816     11.18929      8.19115         0.376423      0.044119      0.426276
Pb      11.26533     11.24152     12.36856         0.351328      0.040225      0.220960
Ti       1.82551      1.80566      2.13192         0.551974      0.492495     -0.138761
Ti       1.92710      1.82657     14.32870        -1.220606      0.940898     -0.589619
Ti       1.79980     13.15402      2.04223        -0.427283     -0.103776      0.478505
Ti       1.82541     13.11992     14.27869         0.576904      0.388435      0.907345
Ti      13.17691      1.81416      1.93185        -1.879937      1.172639      3.180692
Ti      13.13101      1.86697     14.40354         0.221627     -0.416398     -0.769676
Ti      13.09475     13.19881      2.12978        -0.035763     -0.065010     -1.229003
Ti      13.13182     13.00770     14.38574        -0.360943      2.631609     -0.294458
Ti       1.97529      1.79241      6.15759        -1.035682      0.060071      0.201657
Ti       1.83378     13.12100      6.29341        -0.163147      0.124483     -1.121760
Ti      13.20488      1.77168      6.24273        -1.201969      1.145546     -1.253228
Ti      13.11402     13.13392      6.19636         0.615947     -0.372117      0.606418
Ti       1.98106      1.97307     10.33762        -0.520532     -0.967622     -0.232925
Ti       1.88197     13.15006     10.32473        -0.003912     -0.155113      1.040866
Ti      13.21891      1.86112     10.30553         0.272938      0.512061      0.468260
Ti      13.11874     13.12158     10.29015         0.610783     -1.476172      0.166167
Ti       1.88121      5.66815      2.06015        -0.214059     -1.105311      0.852855
Ti       1.87180      5.55154     14.27612         0.482714      0.904119      1.039108
Ti      13.11945      5.64560      2.17437        -0.555384     -0.341006     -0.397934
Ti      13.14129      5.60435     14.25720         1.050942      0.204404      0.910876
Ti       1.94113      5.60301      6.15652        -0.393207      0.134847      0.211749
Ti      13.17751      5.56248      6.19528        -1.111340      1.051958      0.662425
Ti       1.91234      5.60350     10.31005        -0.377451     -0.074861     -1.705230
Ti      13.21745      5.67030     10.25770        -0.229449     -1.330815      0.143162
Ti       1.87673      9.39648      2.08339        -1.013179      0.772900     -0.276018
Ti       1.87166      9.36581     14.41052         0.868262     -0.155851      0.805909
Ti      13.14675      9.46311      2.13399        -1.084575     -0.902968     -0.910617
Ti      13.10828      9.32641     14.36444         1.435357      0.570830      1.650961
Ti       1.79128      9.40916      6.12069         0.098707     -1.299659      1.508590
Ti      13.06731      9.37422      6.13547         0.450016     -1.231150      0.875399
Ti       1.78114      9.37355     10.31039         1.148237     -0.100209     -0.027229
Ti      13.04412      9.30340     10.29548         1.129953      1.573822     -1.065958
Ti       5.65206      1.87275      2.02279        -0.560199      0.724280      1.141823
Ti       5.63308      1.84282     14.35327         0.739380      0.341250      0.151768
Ti       5.61081     13.18881      2.00545        -0.686026     -0.234739      1.096907
Ti       5.61250     13.14744     14.36210        -0.108002     -0.079068      0.070424
Ti       5.71014      1.92826      6.22784         0.564089     -0.931387     -0.463791
Ti       5.55570     13.12333      6.22328        -0.154585      0.478011     -0.301155
Ti       5.74104      1.85669     10.24229        -0.605072      1.857230      0.364700
Ti       5.59356     13.13849     10.38524        -0.705915     -1.617837      0.596464
Ti       5.55953      5.59179      2.10236         0.106585      1.008730      0.238726
Ti       5.65233      5.70872     14.38452        -0.138819     -1.257708      0.105563
Ti       5.60331      5.66780      6.12689         0.083594     -0.543291      1.340316
Ti       5.67577      5.64366     10.27646        -1.066746     -1.057289     -0.434612
Ti       5.59788      9.30809      2.09329         0.486275      0.302001     -0.854464
Ti       5.65061      9.38260     14.33634        -0.835051      0.741606      2.441814
Ti       5.50284      9.41356      6.18897        -0.189311     -0.890898      0.200896
Ti       5.55555      9.38852     10.36560        -0.222276     -0.032110     -0.777733
Ti       9.38538      1.87154      2.11259         1.023865     -0.331576      0.286031
Ti       9.39401      1.74595     14.31448        -0.032839      1.276523      1.015919
Ti       9.30285     13.15126      2.06501         0.092625      0.154294      0.087117
Ti       9.38841     13.09075     14.29515        -0.283228     -0.032075      1.724523
Ti       9.47301      1.76409      6.22501        -1.093055      1.221997     -0.043936
Ti       9.35591     13.06823      6.22510        -0.703538      0.378755     -0.316395
Ti       9.56545      1.88044     10.23539        -1.237523     -0.703697      0.202567
Ti       9.30401     13.09616     10.38483         1.177622      0.569887     -1.127411
Ti       9.28921      5.51084      2.11271         0.758678      1.179844     -0.290141
Ti       9.38222      5.48664     14.35547        -0.192103      0.323542      0.021412
Ti       9.37650      5.54853      6.20755        -1.012177      0.851145      0.228081
Ti       9.41782      5.62048     10.18102         0.244823      0.047626      1.383066
Ti       9.38384      9.37622      2.07871        -0.144864     -0.805844      0.681406
Ti       9.42161      9.28189     14.45151        -0.937132      0.097547      0.872840
Ti       9.31988      9.40910      6.11736        -0.333968     -1.209988     -0.032906
Ti       9.33516      9.41627     10.45184        -0.122140     -1.884758     -0.742986
O       1.89100      1.81719      0.30267         0.512345     -0.256616     -0.273097
O       1.90171      1.89255     12.45629         0.432637      0.244578      1.352939
O       1.67880     13.18439      0.23294         0.893281      0.127662      0.095234
O       1.86502     13.14368     12.52548        -0.072285     -0.452887     -0.547573
O      13.05579      1.86175      0.20835         0.112187      0.147948     -1.939837
O      13.11315      1.88737     12.46623         0.301644     -0.335700      1.498969
O      13.16144     13.19402      0.28897         0.032860     -0.248869      0.389200
O      13.13779     13.11770     12.52067        -0.176010     -0.366346      0.463041
O       1.73656      1.87035      4.31638         0.262069     -0.219736      0.442639
O       1.71155     13.14115      4.45473         0.461193     -0.061583      0.744670
O      13.01245      1.90994      4.37679         0.601030     -0.372419      0.877963
O      13.10906     13.13001      4.36541        -0.178930     -0.326429      0.108899
O       1.88576      1.86043      8.50514        -0.111339      0.119263     -0.898078
O       1.88929     13.18345      8.54521         0.242536     -0.232972     -0.816683
O      13.17520      1.83020      8.52485        -0.182827     -0.165152     -1.612552
O      13.04512     13.07069      8.48881         0.152725     -0.024038     -0.763398
O       1.79673      5.65271      0.27559         0.280866      0.010364     -0.769793
O       1.92945      5.58406     12.50091        -0.228504     -0.054976     -0.634141
O      13.13194      5.59597      0.33182        -0.029053      0.223206     -0.369280
O      13.33911      5.60055     12.46214        -0.818687      0.121971      0.676348
O       1.84225      5.60066      4.26897         0.088552      0.336696      0.708737
O      13.10934      5.64204      4.38044         0.382588     -0.091621     -0.331468
O       1.94937      5.50513      8.42231        -0.510318      0.130917      0.353039
O      13.21347      5.50316      8.44806        -0.426896      0.522999     -0.172751
O       1.94927      9.48451      0.25146        -0.600306     -0.334905      0.024974
O       2.03193      9.42434     12.64695        -0.742046      0.031743     -1.677094
O      13.15457      9.39467      0.24443        -0.008057     -0.034432      1.087541
O      13.06013      9.33113     12.61286         0.244202      0.561920     -1.584847
O       1.87170      9.37547      4.32984        -0.013712     -0.101219     -0.730367
O      13.19287      9.34599      4.32968        -0.297490      0.111494     -0.293015
O       1.85942      9.30042      8.52161        -0.047011      0.199092     -0.286948
O      13.07647      9.32396      8.43726         0.117840      0.192980      1.249238
O       5.64044      1.97394      0.17884        -0.210276     -0.504300      0.663312
O       5.47037      1.88806     12.50925         0.667551     -0.261206      0.179839
O       5.69283     13.18310      0.24524        -0.226921     -0.029238     -1.162603
O       5.56295     13.17558     12.52137         0.685464      0.068242      0.486884
O       5.78308      1.81159      4.38585        -0.400720      0.281036      0.053180
O       5.64951     13.05881      4.38397        -0.282613      0.533525      0.090086
O       5.81896      1.84499      8.43968        -0.677288      0.074475     -0.288305
O       5.72589     13.15760      8.52191        -0.637250     -0.555931     -0.050645
O       5.69296      5.71579      0.26475        -0.566590     -0.447602     -0.687227
O       5.72011      5.57828     12.54274        -0.149011      0.489520      0.205711
O       5.69174      5.68297      4.35339        -0.289439     -0.042184     -0.971819
O       5.60846      5.56193      8.47624         0.033861      0.070406      0.214480
O       5.60064      9.23697      0.23827         0.146334      0.602206      0.603709
O       5.49221      9.43633     12.57989         0.510686     -0.341628     -1.375022
O       5.43558      9.40203      4.33880         0.459020     -0.175458     -0.123178
O       5.52145      9.36648      8.49883         0.306103      0.618437      0.244625
O       9.34489      1.89767      0.28752        -0.012018      0.168801     -0.389133
O       9.45288      1.92606     12.53712        -0.072302     -0.596755     -0.925749
O       9.20596     13.21936      0.21158         0.213103     -0.879059      0.452503
O       9.27983     13.19739     12.50762         0.381230     -0.235456     -0.798788
O       9.40149      1.90849      4.38860         0.108610     -0.493982     -0.122429
O       9.38413     12.94045      4.37582        -0.194353      0.411660     -0.233211
O       9.52065      1.80392      8.46683        -0.308133      0.124076     -0.392305
O       9.35066     13.03158      8.48409        -0.193091      0.084157      1.068825
O       9.44470      5.55968      0.19235        -0.170221     -0.425057      0.749614
O       9.33918      5.35689     12.50033        -0.301000      1.034997      0.510757
O       9.19963      5.72168      4.39175         0.194082     -0.079009     -0.423892
O       9.35404      5.68801      8.36993         0.184657     -0.222431      0.999885
O       9.32042      9.25003      0.26142         0.424370      0.357902     -0.953810
O       9.39870      9.33947     12.66271         0.027815      0.116475     -1.078646
O       9.22995      9.30141      4.28558         0.828453      0.373626      0.506895
O       9.42996      9.30752      8.64306        -0.132775      0.506080     -0.166501
O       3.74304      2.00624      2.57529         0.313975     -0.834052     -1.409957
O       3.78496      1.66920     14.67097        -0.601002     -0.533724      0.191425
O       3.70527     13.07793      2.39637         0.509676     -0.075474     -0.491036
O       3.74368     13.52931     14.58536         0.008670     -0.504311      0.320018
O      14.94875      1.51210      2.17125         1.275553      0.357244      0.459666
O       0.04106      2.05873     14.67733        -0.504028      0.245201     -0.165265
O      14.99712     13.36361      2.44213        -0.698297     -0.354266     -0.646206
O      14.95584     12.95139     14.51301         0.972225     -0.255052      0.419494
O       3.72791      2.08570      6.41790         1.717076     -0.680612     -0.179905
O       3.66762     13.09114      6.50003         1.610975     -0.407120      0.257410
O      14.98464      1.53001      6.39330         1.161902      0.658447      0.471405
O      15.00669     13.32293      6.64251        -1.155260     -0.382614     -0.512567
O       3.77448      2.35084     10.33290         1.123249     -1.027454      0.593320
O       3.75118     12.87663     10.71644         0.273846      0.172725     -1.086507
O       0.07075      1.60306     10.50118        -0.881594      0.016807      0.273770
O       0.06924     13.39805     10.64538        -1.658596     -0.252429     -0.613566
O       3.72064      5.35521      2.27476        -0.751469      0.623637      0.106327
O       3.80124      5.86579     14.56722        -0.319087      0.005909      0.329057
O       0.02224      5.62329      2.31198        -0.966530      0.942756      0.391583
O       0.09344      5.30708     14.62760        -2.044221      0.532621      0.001965
O       3.74411      5.51887      6.42589         0.443871     -0.428716     -0.202200
O      15.00274      5.71745      6.44402         0.091523     -0.362286     -0.336595
O       3.70421      5.36040     10.45654         1.788706     -0.032211      0.659735
O       0.01473      5.85993     10.50933        -0.131816      0.172353      0.120034
O       3.73207      9.68600      2.20752        -0.113478     -0.577864      0.381284
O       3.74351      9.18250     14.68927         0.561136     -0.077000      0.090413
O      14.99868      9.24968      2.34710         0.187556      0.119667     -0.171567
O       0.01809      9.56750     14.66692        -0.382870      0.309290     -0.236594
O       3.65420      9.35056      6.50838         0.304962      0.242415     -0.051141
O      14.98821      9.19180      6.53919         0.062483      0.153768     -0.594111
O       3.70033      9.72075     10.50948         0.184577     -0.211817      0.246266
O      15.00122      9.12263     10.59385        -0.965036      0.188438      0.295102
O       7.47284      1.76209      2.33931        -0.072255     -0.187913      0.000509
O       7.52225      2.04074     14.51912        -0.216188      0.405386      0.237064
O       7.40324     13.31096      2.34566         1.497888     -0.174936      0.290706
O       7.54760     12.82276     14.48178        -0.968704      0.074267      0.453820
O       7.57752      1.79298      6.40505         0.166808     -0.232390      0.304171
O       7.48665     12.89239      6.44676        -0.139698      0.903162      0.167304
O       7.52437      1.57262     10.54137         1.067059      0.174768      0.114969
O       7.43827     13.52452     10.60755         1.205978     -0.574458     -0.698108
O       7.42622      5.75056      2.28707         0.544000      0.393283      0.066835
O       7.49717      5.42968     14.66195         0.293568     -0.345342     -0.185730
O       7.44325      5.72811      6.58293         1.054468     -0.157635     -0.401058
O       7.51858      5.87229     10.43446         0.549307      0.132163      0.177114
O       7.47356      9.11951      2.26610        -0.509512      0.334152      0.233351
O       7.51640      9.61198     14.59195        -0.138776     -0.103869      0.099720
O       7.43603      9.40303      6.37447        -0.018267     -0.022847      0.392367
O       7.44604      9.15447     10.48558         0.242846     -0.462258      0.793710
O      11.26336      2.08215      2.37139        -0.462517     -0.133454     -0.394073
O      11.23200      1.67743     14.65699         0.574538     -0.007207     -0.166865
O      11.15696     13.04490      2.17916         1.101974     -0.648953      0.645761
O      11.24741     13.35658     14.69567        -0.527689     -0.583592     -0.347893
O      11.27976      1.81226      6.55285         0.629516      0.890858      0.131793
O      11.25053     12.84348      6.39573         0.856778      0.308740      0.127573
O      11.33878      2.12367     10.59940        -0.116689     -0.221276     -0.308613
O      11.24913     12.85430     10.73416        -0.814094     -0.034905     -0.801753
O      11.20225      5.54318      2.52131         0.186596     -0.702403     -0.522502
O      11.30783      5.79803     14.50699        -0.370980      0.302632      0.125870
O      11.17574      5.59059      6.50331         1.944792      0.320049     -0.163008
O      11.25472      5.39539     10.57277         0.445094      0.284828     -0.418832
O      11.21785      9.49517      2.34738         0.676442     -0.087706      0.110263
O      11.34349      9.10720     14.69029        -2.098969      0.075580     -0.005606
O      11.26800      9.45107      6.56859        -0.950389     -0.135590     -0.835611
O      11.25816      9.65058     10.69411        -0.572746     -0.191469     -0.295963
O       1.69895      3.69591      2.30349        -0.157628     -0.266609      0.245877
O       2.16367      3.78262     14.56891         0.390971     -1.754099      0.456518
O       2.03085     14.95524      2.60185        -0.231860      0.643796     -1.101855
O       1.62161      0.00892     14.49484         0.205964      0.198924      0.547662
O      13.27778      3.69930      2.37159         0.044202      0.268715     -0.087428
O      12.91335      3.75966     14.58026         0.178663     -0.082914      0.182566
O      12.89400      0.01820      2.43796        -0.070716     -0.311769     -0.205989
O      13.23702     15.00591     14.67042         0.253797      0.283454     -0.389073
O       1.77132      3.67851      6.28474        -0.863643      0.370715      0.460351
O       2.11449     14.98341      6.62177        -0.594271      0.599025     -0.414755
O      13.20704      3.70019      6.41363        -0.088928     -0.058539      0.206704
O      12.87273     14.97524      6.32226         0.227966     -1.447091      0.405293
O       1.59688      3.77719     10.50340        -0.595170     -0.408481      0.336123
O       2.16542      0.02333     10.60324         0.234013      0.099024     -0.596329
O      13.40309      3.73349     10.46933        -0.001411      0.273294      0.226588
O      12.89219     14.91568     10.44094        -0.162085      1.669793      0.612958
O       1.96840      7.56578      2.32624         0.412640     -0.797285     -0.145407
O       1.66585      7.48678     14.50210        -0.059218     -0.039856      0.776561
O      12.96366      7.51332      2.37849         0.490521     -0.007143      0.005605
O      13.42334      7.51368     14.56918         0.064782     -1.392841      0.304024
O       1.97756      7.43463      6.53100        -0.397117      0.612021     -0.642497
O      13.03406      7.48938      6.46672         0.012681     -0.645593     -0.041561
O       2.07418      7.44660     10.65580         0.265785      1.403547      0.045039
O      12.98612      7.52532     10.57086        -0.809135     -0.985697      0.169688
O       1.74255     11.31055      2.42587        -0.399799     -0.334374     -0.379797
O       2.14466     11.30302     14.61678        -0.234304     -0.073651      0.253200
O      13.30646     11.31795      2.41734        -0.468729     -0.342905     -0.325203
O      12.90791     11.29540     14.74149        -0.092437     -2.194699     -0.143064
O       1.78922     11.19350      6.47586        -0.239750      0.898248      0.357896
O      13.37507     11.16662      6.39141        -0.354475      1.751600     -0.069622
O       1.51140     11.24287     10.42592         0.418978      0.182708      0.561384
O      13.43707     11.23259     10.44215        -0.092836     -0.401486      0.658456
O       5.69446      3.81122      2.35486         0.460204     -2.132482     -0.069193
O       5.38081      3.71241     14.61491         0.485529      0.877071     -0.098509
O       5.52293      0.06003      2.37602        -0.504624     -0.625949     -0.156728
O       5.98854     14.97960     14.64484        -0.597139      0.442805     -0.109104
O       5.83443      3.74228      6.39839        -0.422663      0.600328      0.229974
O       5.54864      0.00766      6.43417         0.141901     -0.831924      0.365112
O       5.89205      3.76680     10.55161         0.320319     -0.468263     -0.074775
O       5.35991      0.03434     10.47884        -0.212649     -0.224013      0.133320
O       5.28541      7.49897      2.33763         0.080177      0.153347      0.255221
O       5.83865      7.57011     14.62670         0.191979     -1.146934     -0.335675
O       5.49047      7.46638      6.55190         0.291966      1.283400     -0.408952
O       5.29729      7.48335     10.51309         0.367029      0.621932      0.468439
O       5.78142     11.28835      2.29341        -0.302993     -0.437541     -0.339448
O       5.34965     11.29858     14.69779         0.277084     -0.328248     -0.047927
O       5.48583     11.25451      6.38889         0.227011     -0.574193      0.624277
O       5.94223     11.27332     10.62728        -0.234655      0.212246     -0.472929
O       9.13142      3.69194      2.40955         0.142097      1.032214     -0.141056
O       9.62325      3.67114     14.55723        -0.138900      0.240909      0.608960
O       9.52865     15.00662      2.27918        -0.465339     -0.085245      0.620683
O       9.19059     14.94494     14.72327        -0.129344      0.177687     -0.591944
O       9.44947      3.74418      6.45600        -0.755839     -0.495831      0.186028
O       9.55696     14.93636      6.40639        -0.471892     -1.403304      0.104730
O       9.18662      3.69021     10.39103        -0.385215      1.170385      0.096865
O       9.74752     14.96671     10.42951        -0.597970     -0.300981      0.444760
O       9.45447      7.37702      2.23539         0.279808      1.450847      0.434436
O       9.17555      7.39216     14.58587         0.346081      0.890524     -0.111309
O       9.37711      7.56993      6.56782         0.287284      0.028617     -0.526560
O       9.59356      7.47614     10.70819        -0.145967     -0.024869     -0.151800
O       9.30325     11.22800      2.18609        -0.926674      0.355327      0.182427
O       9.56927     11.19686     14.63865         0.480722      0.338681      0.095231
O       9.44370     11.20102      6.52258        -0.582829     -0.643052      0.044508
O       8.98130     11.22914     10.61760         0.612047      1.017027      0.031208
