  # total energy = -7871.98086316 
CRSYTAL
PRIMVEC
    15.2000000000000000    0.0000000000000000    0.0000000000000000
     0.0000000000000000   15.2000000000000000    0.0000000000000000
     0.0000000000000000    0.0000000000000000    17.000000000000000
PRESSURE
7.41946 8.56264 1.16494 -0.135917 -0.14552 -0.127152
PRIMCOORD
320 1
Pb       3.61130      3.87072      4.33618         0.250974     -0.259870     -0.014043
Pb       4.05356      3.94277      0.01576        -1.408126     -0.444183     -0.338233
Pb       3.58563      0.26591      4.39727         0.672693     -0.610220     -0.325539
Pb       3.91591     15.14128     16.95382        -0.320650      0.259295      0.219209
Pb       0.05385      3.91734      4.19831        -0.782608      0.041325     -0.107373
Pb       0.21563      3.86935     16.92155        -0.088644     -0.247318     -0.072545
Pb      15.13357      0.33430      4.57175         0.402499     -1.062830     -0.710046
Pb       0.08203     15.03549     16.93562        -0.083697      1.173009     -0.118414
Pb       4.00050      3.88816      8.38567        -0.083798     -0.194056      0.177293
Pb       3.86717     14.93026      8.79576        -0.526192      0.461832     -1.282552
Pb       0.17949      3.63605      8.73121        -1.461241     -0.089601     -0.313154
Pb      14.83531     15.09093      8.53129         0.967331      0.297931      1.030924
Pb       3.84753      3.68812     12.54772        -0.108491     -0.038154      0.145204
Pb       3.82638      0.01848     12.85947        -0.160908      0.044938     -0.609555
Pb      15.13709      3.86340     12.70013         0.793928     -0.894303     -0.136074
Pb       0.09157     15.18841     12.92496         0.168096     -0.194768     -0.696505
Pb       3.67120      7.69634      4.37343         0.302214      0.427352     -0.018212
Pb       3.79884      7.64823     16.98386         0.123455     -0.228226      0.167292
Pb      15.02681      7.89422      4.36732         0.780352     -0.552081     -0.762022
Pb      15.12633      7.49286     16.81894         0.350560     -0.003667      0.216435
Pb       3.84980      7.58518      8.30994         0.273552      0.050626     -0.041137
Pb      15.02222      7.47959      8.52993         0.311905      0.153510     -0.680648
Pb       3.69676      7.40130     12.59295         0.302610      0.466125      0.391561
Pb      15.18680      7.34806     12.75844        -0.242201      0.782515      0.174415
Pb       3.45430     11.51085      4.40286         1.070694     -0.259310     -0.348149
Pb       4.11099     11.46241      0.35026        -0.173840     -0.196111     -0.919203
Pb      15.05928     11.54035      4.23155         0.630972     -0.288235     -0.304691
Pb       0.16142     11.38429     16.88616        -0.350321     -0.043800      0.159277
Pb       3.65615     11.40785      8.57395         0.328813     -0.072045     -0.687525
Pb      15.04034     11.39694      8.61993         0.163612      0.276370     -0.550458
Pb       3.68490     11.27722     12.69563         0.069095      0.112111      0.272866
Pb      15.14726     10.98434     13.00902        -0.520943      0.066244     -0.813456
Pb       7.54984      3.81654      4.26951         0.380343      0.195804     -0.719915
Pb       7.57474      3.79346      0.13519         0.018283     -0.311217     -0.390052
Pb       7.56784     15.09805      4.25028        -0.296642      0.025568     -0.693294
Pb       7.67604     15.06770     16.97137        -0.152108      0.584933      0.908498
Pb       7.71616      3.64136      8.36071        -0.073533      0.958477      0.081448
Pb       7.65190     15.17137      8.48456        -0.071935     -0.298169      0.099173
Pb       7.66842      3.82791     12.79474        -0.390244     -0.605447     -0.797851
Pb       7.56922     15.07384     12.87957         0.345731      1.031086     -1.168909
Pb       7.78512      7.53762      4.07814        -0.488228      0.379910      0.749312
Pb       7.62155      7.73369      0.16153        -0.125896      0.515926     -0.531066
Pb       7.50897      7.65465      8.25761         0.062692     -0.398590      0.380136
Pb       7.39319      7.56755     12.63220         1.045430      0.108012     -0.581889
Pb       7.45862     11.36525      4.29366        -0.136337     -0.065401     -0.131011
Pb       7.54815     11.49551      0.02693         0.151292     -0.746448     -0.216254
Pb       7.56104     11.57832      8.62250        -0.028120     -0.622940     -0.243187
Pb       7.53424     11.31816     12.72630         0.300603     -0.324019     -0.380917
Pb      11.41085      3.94997      4.06606        -0.420487     -0.406065      0.108584
Pb      11.33799      3.59127     16.98320         0.378365      0.202001     -0.105314
Pb      11.52845     15.14835      4.09316        -0.312792      0.232812      0.697415
Pb      11.47930     15.15409     16.95616         0.005219      0.127589     -0.390188
Pb      11.47473      3.80901      8.46388        -0.343705     -0.438928     -0.305519
Pb      11.29138      0.04499      8.41826         0.413843     -0.740479      0.432147
Pb      11.30279      3.65591     12.82224        -0.425082      0.083835     -0.353148
Pb      11.41530     15.16729     12.67605        -0.421891     -0.601410      0.344831
Pb      11.51644      7.63323      4.06768        -0.692518     -0.303080     -0.149797
Pb      11.41522      7.55038     16.90144        -0.800464     -0.058729      0.455298
Pb      11.25936      7.49314      8.71110         0.243765      0.026360     -1.218401
Pb      11.34469      7.55419     12.96484         0.525735      0.369335     -0.564930
Pb      11.37490     11.26750      4.13480         0.326773      0.954392      0.445809
Pb      11.49151     11.48262     16.70949        -0.679163      0.131272      0.905973
Pb      11.26122     11.45787      8.53210         0.639828      0.308337     -0.352942
Pb      11.25346     11.22753     12.50328         0.855898     -0.028397      0.954095
Ti       1.78854      1.92746      2.16559         0.800086     -0.043739     -1.121586
Ti       1.85189      1.88136     14.89440         0.144883      1.216928      0.221401
Ti       1.97111     13.35102      2.03707        -0.519543     -1.059125     -0.262665
Ti       2.01618     13.18826     14.91720         0.523689      1.713901     -0.401323
Ti      13.27366      1.97059      2.09005         0.566077     -0.206167     -0.507832
Ti      13.30945      1.90928     14.83201        -0.155351     -0.740709      1.313025
Ti      13.51990     13.46135      2.22086        -1.409137     -1.779218      0.135763
Ti      13.46588     13.28596     14.91604        -2.116731      0.620728     -1.399035
Ti       1.87316      1.95684      6.67244         0.196654     -1.807321     -0.723850
Ti       1.88319     13.37974      6.59639        -0.049483     -0.824528      1.155942
Ti      13.20700      1.91401      6.47879        -0.157281      0.293004      1.094203
Ti      13.33834     13.21860      6.43879        -1.179161      0.679890      0.707203
Ti       1.89996      1.76476     10.58328        -0.473810      1.014112      1.862251
Ti       1.87255     13.20692     10.87013        -0.271093     -0.214928     -0.499851
Ti      13.24111      1.77604     10.80704         0.400165     -0.327264     -1.883502
Ti      13.39958     13.14283     10.92775        -0.912966      0.708614     -1.675179
Ti       1.86586      5.81764      2.34382        -0.886478     -0.040292     -1.835057
Ti       1.99020      5.74050     14.91950        -0.097701     -1.581484      0.512939
Ti      13.26728      5.72702      2.04351         0.753306      0.157806      0.615390
Ti      13.15389      5.58822     14.97519         0.639555     -0.114038     -0.195372
Ti       1.75309      5.64091      6.62804         0.749819      1.086505     -1.292625
Ti      13.27971      5.68362      6.34109        -0.804352     -1.324438     -0.537906
Ti       1.92357      5.62822     10.56954         0.035449     -0.264385      0.112865
Ti      13.17736      5.53360     10.82096         0.340849      0.972909     -1.401274
Ti       1.76868      9.56050      2.09105         0.127598     -1.210174      1.941459
Ti       1.96719      9.43913     14.96727        -0.164795     -0.135980     -1.062419
Ti      13.23002      9.58427      2.08288         0.609488      0.286546     -1.170875
Ti      13.17417      9.44762     15.10315         0.863511     -0.411525     -2.703494
Ti       1.85424      9.55939      6.60511        -0.760827     -0.412799     -1.030905
Ti      13.22473      9.43620      6.51450        -0.760479      0.673988      0.615571
Ti       1.88517      9.29604     10.69252        -0.602984      0.842946      0.780862
Ti      13.34106      9.31077     10.69180        -1.072355      0.676734      1.726383
Ti       5.64025      1.92983      2.22842         0.102749     -0.699277     -0.009046
Ti       5.68119      1.89421     15.10154        -0.151087      0.116405     -0.876581
Ti       5.76561     13.34919      2.31841        -0.389793     -0.085842      0.286276
Ti       5.76746     13.28105     14.85445        -1.217211     -0.782625      1.518817
Ti       5.66590      1.92260      6.35683        -0.999490     -0.456342      0.379375
Ti       5.72720     13.37115      6.51875        -2.399583     -1.294817     -1.860522
Ti       5.73080      1.86745     10.54551         0.217240      0.100480      0.275427
Ti       5.66566     13.23837     10.76707         0.673036      1.118385     -0.432032
Ti       5.53947      5.74998      2.31565         1.565081     -0.221685      0.594440
Ti       5.77944      5.79238     14.93279        -1.327118     -0.852573      0.643070
Ti       5.72733      5.66253      6.33431        -0.109357      1.549656      0.882065
Ti       5.71723      5.66765     10.60338         1.536090     -0.114283     -0.314183
Ti       5.55334      9.51410      2.38224         0.843112      0.127408     -0.107883
Ti       5.69239      9.44803     14.81524         0.281555      0.891985      1.157655
Ti       5.76075      9.62916      6.54374        -0.892735     -0.400433     -0.797078
Ti       5.64379      9.51957     10.63581         1.155023     -1.474786     -1.542302
Ti       9.47633      1.82361      2.24971        -0.113552      0.652583     -0.964406
Ti       9.43072      1.83598     15.05142         1.021052     -0.239968     -0.489865
Ti       9.67993     13.33021      2.25082        -0.862238      0.257153      0.831976
Ti       9.46801     13.27267     14.88061         1.214639     -0.916352     -0.729494
Ti       9.40041      1.72038      6.28093         1.470598      1.542095      0.107169
Ti       9.47245     13.17076      6.42869         0.886989      0.279348      0.231887
Ti       9.39727      1.81207     10.69837         0.789551      0.350117      0.847423
Ti       9.49249     13.22836     10.82416         0.172197      1.385864     -1.394883
Ti       9.43197      5.71874      2.03747         0.333677     -0.112680      1.453757
Ti       9.36194      5.69430     14.97864         1.474521      0.393168      0.647084
Ti       9.50970      5.64461      6.44017         0.112450     -0.119326     -1.352851
Ti       9.51906      5.70390     10.73600        -1.498549     -0.977828      0.917707
Ti       9.44534      9.71490      2.20228        -0.351489     -2.423286     -1.011049
Ti       9.39269      9.55333     14.90676        -0.870188     -0.557616     -0.095941
Ti       9.56495      9.46167      6.39437        -0.467740     -0.841050     -0.712242
Ti       9.47313      9.40620     10.56044        -1.068002     -0.122633      0.188853
O       1.81864      1.93388      0.35526        -0.198049      0.087254      0.867209
O       1.74327      2.03239     13.07223         0.589190     -0.277235      0.480243
O       1.96015     13.20257      0.12329        -0.404252     -0.033187      1.370066
O       1.90079     13.31120     13.08880         0.259391     -0.308526      0.446627
O      13.27400      1.84254      0.29775         0.050455      0.310502      0.822602
O      13.40507      1.78755     13.00440        -0.336683      0.110198      0.333487
O      13.44877     13.31381      0.44457         0.289367     -0.052818     -1.049872
O      13.38941     13.37599     13.09829         0.121000     -0.180136      0.161200
O       1.75390      1.86079      4.68239         0.163562     -0.028400      0.999624
O       1.77823     13.10662      4.84619         0.186021      0.693158     -0.631859
O      13.37104      1.77685      4.71460        -0.422485      0.244112     -0.323352
O      13.33133     13.30473      4.65353         0.175732      0.033765     -0.043149
O       1.94869      1.87155      8.81462         0.096095      0.155965      0.108021
O       1.96355     13.22582      9.04783        -0.120113      0.155186      0.638278
O      13.19601      1.94274      8.92413        -0.090011     -0.000501      0.322903
O      13.35102     13.26189      9.02331        -0.034389     -0.936082      0.621699
O       2.06369      5.84309      0.50656        -0.502228     -0.260023      0.466938
O       1.98775      5.68773     13.12838         0.209901     -0.030508      0.065625
O      13.27727      5.65945      0.26079         0.140215      0.428906     -0.275974
O      13.16486      5.54644     13.15848         0.164000      0.289594     -0.196091
O       1.72786      5.52828      4.78651         0.230178      0.436151     -0.347964
O      13.28344      5.73841      4.49903        -0.250644     -0.164998      0.664423
O       1.89849      5.63615      8.76776         0.010976      0.340791      0.052524
O      13.02533      5.54704      8.92839         0.953098      0.544249      1.652182
O       1.89482      9.56079      0.35871        -0.189216     -0.003354     -1.874374
O       1.92495      9.22548     13.12810         0.217737      0.876475      0.742461
O      13.19330      9.46152      0.23772         0.177972      0.094931     -0.315930
O      13.18809      9.40945     13.17068        -0.093475      0.100754      1.217141
O       1.70529      9.59213      4.73776         0.340939     -0.190703      0.913799
O      13.09134      9.50903      4.69884         0.529764     -0.096889     -0.429166
O       1.75938      9.31802      8.95451        -0.275604     -0.097294     -0.853980
O      13.25622      9.42300      8.92033         0.325472     -0.438633     -0.122459
O       5.66978      1.93850      0.39463        -0.393881     -0.153621      0.131685
O       5.71395      1.73474     13.28919        -0.173142      0.208244      0.748853
O       5.65643     13.22060      0.44171        -0.057407      0.287227      0.919271
O       5.82354     13.36446     13.07994        -0.537360      0.030405     -0.441272
O       5.63510      1.86372      4.55915         0.243852      0.055788      0.435279
O       5.60014     13.34099      4.62990         0.607789     -0.079624      0.946366
O       5.66499      1.83341      8.75302         0.299906      0.239116      0.266996
O       5.68216     13.24371      8.87333        -0.110688     -0.105606      1.263570
O       5.54341      5.78940      0.51459         0.412690      0.089819     -0.020765
O       5.66122      5.81404     13.17799         0.255221     -0.408740     -0.736382
O       5.68392      5.43689      4.61473         0.126089      0.568127     -1.448222
O       5.71291      5.62854      8.86037        -0.135715     -0.107505     -1.469617
O       5.71158      9.52890      0.52319        -0.129546     -0.108579      0.929157
O       5.70511      9.45932     13.01666        -0.190894     -0.141137      0.115099
O       5.54253      9.55042      4.77168        -0.062403      0.232812     -0.975431
O       5.73059      9.57404      8.76720         0.027958     -0.134251      1.105846
O       9.58087      1.56133      0.37680         0.109874      1.072584      0.802116
O       9.52849      1.89129     13.22170        -0.413357     -0.219130      0.597090
O       9.56670     13.39412      0.51817         0.018130     -0.416588     -1.148619
O       9.39231     13.18514     13.04084         0.080270      0.112058      0.900635
O       9.45249      1.95001      4.51058         0.017464     -0.381577      0.442073
O       9.49321     13.19099      4.68160        -0.229623      0.221679     -0.560201
O       9.43106      1.74050      8.90608        -0.440141      0.041619      0.112397
O       9.42116     13.37623      8.94353        -0.153813     -0.455570      0.339617
O       9.42437      5.77541      0.29332        -0.441544     -0.145675     -1.000051
O       9.33314      5.53506     13.21243         0.497365      0.120784     -0.508766
O       9.45182      5.53587      4.56650         0.334418      0.431306      1.197665
O       9.64702      5.67852      8.99681        -0.367113     -0.029147     -1.182554
O       9.34942      9.55330      0.35678         0.024309      0.050369      1.084309
O       9.24803      9.63652     13.11092         0.733052     -0.050325     -0.145241
O       9.60938      9.50245      4.53918         0.203016     -0.077017      0.360569
O       9.46564      9.28029      8.76311        -0.182442      0.714159      0.968251
O       3.72894      1.85472      2.69030        -0.347166      0.225697     -0.541624
O       3.68095      1.95000     15.34558         1.904847     -0.740472     -0.356758
O       3.70537     13.13899      2.51947         0.385249      0.185755     -0.048323
O       3.88597     13.34240     15.25123        -0.785447      0.202442     -0.493817
O      15.14878      1.80588      2.52864         0.275532      0.100486      0.264258
O      15.15225      2.13596     15.24191         0.364047     -0.499304     -0.153309
O       0.09667     13.37433      2.65460         0.247919     -0.240222     -0.309586
O       0.07789     13.29866     15.21278        -0.170665     -0.411177      0.287481
O       3.76308      1.91714      6.69665         0.292388      0.140078     -0.252506
O       3.76319     13.23723      6.99391        -0.085554      0.268654     -0.166873
O      15.14898      1.92799      6.95096        -0.312800     -0.108297     -0.634176
O      15.17535     13.33841      6.97040        -0.262655     -0.910292     -0.427839
O       3.87995      1.82525     11.00357        -0.984767     -0.277933      0.239148
O       3.73159     13.38581     11.23874         1.720018     -0.233398     -0.415709
O      15.17403      2.05218     10.84307         1.220100      0.005670      0.211960
O       0.06378     13.08707     11.12040        -0.174907     -0.102728      0.164714
O       3.73581      5.69283      2.80672        -0.773356      0.094268     -0.128168
O       3.87174      5.76733     15.37320        -0.017615      0.219259     -0.417904
O      15.16334      5.64880      2.45960        -0.470856      0.186268     -0.017672
O      15.15320      5.67078     15.11480         0.555918      0.282942      0.588608
O       3.84213      5.65140      6.66068        -1.801383      0.417706      0.627357
O      15.11381      5.47665      6.85467        -0.517585      0.271140      0.336130
O       3.90695      5.72246     10.89857        -2.203477      0.275076      0.597402
O       0.01634      5.59005     10.93822        -0.654979     -0.128035      0.089748
O       3.72943      9.39972      2.57927        -1.143648      0.364955     -0.108491
O       3.81787      9.40583     15.22154         0.229064      0.261776     -0.004479
O      15.04684      9.51614      2.37127         1.242555     -0.102808      0.435914
O      15.11545      9.28786     15.11816         0.735096      0.840819      0.606392
O       3.72246      9.57438      6.91747        -0.623818     -0.957642     -0.170395
O      15.01235      9.56797      6.93281         0.909030     -0.451062     -0.130480
O       3.80587      9.16003     10.83999         0.327604      0.266836      0.434538
O      15.13414      9.36128     11.27003         1.264095      0.308332     -0.884926
O       7.60821      1.82170      2.40119        -0.442877      0.334574      0.372426
O       7.59587      1.83810     15.45852        -0.079295     -0.006696     -0.232187
O       7.62596     13.29789      2.58427        -0.435197      0.115040      0.092452
O       7.56872     13.24738     15.36452         0.856099      0.215560     -0.414915
O       7.55341      1.95088      6.69573         0.031126     -0.375861      0.040796
O       7.51088     13.21283      6.92543         1.306124     -0.060851     -0.438016
O       7.59025      1.92604     11.15931        -0.351903     -0.040043     -0.478693
O       7.59582     13.25324     11.00369        -1.090744     -0.803613      0.116445
O       7.49319      5.70068      2.63579         0.558572     -0.306560     -0.919391
O       7.58470      5.59448     15.37704         0.140393      0.145152      0.298913
O       7.58234      5.60011      6.81602         0.837224      0.193799     -0.056113
O       7.55485      5.55719     11.07471         1.414423     -0.715908      0.545842
O       7.54658      9.48143      2.74060         0.101506      0.417438     -0.618576
O       7.52318      9.59095     15.32339        -0.484165     -0.139169     -0.028998
O       7.62265      9.58804      6.59395        -0.027062     -0.113154      0.554351
O       7.55285      9.66007     10.99336         0.094609      0.138037     -0.213068
O      11.47155      1.84417      2.59014        -1.031111      0.206503     -0.108714
O      11.43371      1.79358     15.28335        -0.232616     -0.417951     -0.197232
O      11.51217     13.22044      2.56765        -0.347350      0.715525     -0.033126
O      11.44843     13.28938     15.18426        -0.496087     -0.264078      0.183077
O      11.27814      1.71950      6.81271         0.304896      0.189866     -0.710364
O      11.30005     13.31261      6.85696         0.794034     -0.063779     -0.024705
O      11.36753      1.58351     11.09037        -0.127904      1.133657     -0.192637
O      11.40062     13.24850     10.97879         0.221212      0.339945      0.826556
O      11.35333      5.79937      2.27401        -0.019847     -0.322155      0.659763
O      11.29126      5.70090     15.36765        -0.496138     -0.158714     -0.370713
O      11.38536      5.69742      6.84056        -0.303034      0.372198     -0.395793
O      11.36211      5.78902     11.24522        -0.330129      0.147995     -0.237077
O      11.36426      9.63237      2.39486        -0.761851     -0.452393      0.367576
O      11.27137      9.49047     15.18226         0.443866      0.252988      0.406374
O      11.35812      9.29997      6.95475         1.006616      0.463539     -0.250757
O      11.34396      9.35122     11.03024        -0.224306     -0.293170     -0.175058
O       1.72252      3.81141      2.55923         0.932096     -0.389707     -0.079712
O       2.04993      3.87635     15.35470        -0.822617      0.516197     -0.141387
O       2.01479     15.09359      2.17966        -0.392587      2.017598      0.702242
O       1.72868      0.03380     15.07182         0.393237     -0.301703      0.219291
O      13.16754      3.84598      2.44446         0.473130     -0.192578     -0.094013
O      13.16154      3.74360     15.26294        -0.203639     -0.022787     -0.091472
O      13.30315      0.06940      2.48652        -0.130619     -0.531825      0.234243
O      13.34234     15.17781     15.30840         0.768610     -0.025659     -0.428677
O       1.88660      3.76898      6.84700         0.152758      0.034068      0.334212
O       1.93641     15.17056      6.95110        -0.215390      0.916166     -0.618695
O      13.04968      3.77123      6.58153         0.172368     -0.676865      0.270739
O      13.32520     15.10808      6.85347        -0.662825      0.902337     -0.442137
O       1.96920      3.84538     11.00571         0.408230     -1.336473     -0.205787
O       1.90347      0.01259     11.17296        -0.418018     -0.222463     -0.583715
O      13.12758      3.71544     11.10216        -0.090547      0.276771      0.189028
O      13.50059     15.12054     10.79465        -0.223889      0.067423      1.459403
O       1.71434      7.65451      2.55431         0.491661      0.016362      0.692386
O       1.88115      7.62904     15.31349         0.162867     -1.151029      0.478116
O      13.28478      7.66272      2.43664        -0.473953     -0.342092      0.173838
O      13.04776      7.48605     15.17003         0.698048      1.110937      0.454831
O       1.62596      7.59928      6.71888         0.519248     -0.538801      0.569976
O      13.34918      7.49218      6.50504         0.341954      1.344622      1.063887
O       1.87445      7.44207     11.08526        -0.359285      0.060617     -0.137102
O      13.39098      7.49032     11.19353        -0.643855     -0.354958     -0.757658
O       1.73726     11.30710      2.55092         0.306656      1.684008     -0.070291
O       1.90267     11.40648     15.05070        -0.424834     -2.091968      0.300064
O      13.29841     11.44136      2.45196         0.386749     -0.041766      0.323005
O      13.35656     11.35432     15.16057         0.122633      0.459475      0.471763
O       1.79220     11.36491      6.96931        -0.001932      0.567000      0.353465
O      13.17389     11.42489      6.84952        -0.033287     -0.953733      0.064273
O       2.10103     11.16813     11.06486        -0.479664      0.943324     -0.048295
O      13.22264     11.26971     11.11579         0.394607     -0.339836     -0.208735
O       5.62139      3.76305      2.47180         0.096746      0.548451      0.001556
O       5.87879      3.82425     15.33726        -1.179797     -0.467990      0.113740
O       5.73086     15.19200      2.54715        -0.588660      0.076307     -0.032727
O       5.73158     15.12383     15.49060        -0.016932      0.772268     -0.944507
O       5.63958      3.86387      6.68800         0.342436     -2.812118      0.691289
O       5.59408      0.00204      6.66580         0.459414      0.631332      0.469886
O       5.63314      3.73782     10.87342         0.059889     -0.508071      0.537969
O       5.82203     15.12874     10.87385        -0.495849      0.495024      0.455107
O       5.58903      7.59852      2.74759         0.237682     -0.067825     -0.169140
O       5.80654      7.60153     15.32714         0.016652      0.846905     -0.090662
O       5.64337      7.58328      6.61006         0.082174      0.333902      0.844662
O       6.06635      7.53420     10.66335        -1.073822      1.577193      1.003065
O       5.55680     11.45700      2.58570         0.602671     -1.285802      0.009227
O       5.70204     11.42034     15.35042        -0.385670     -0.573625     -0.582658
O       5.51414     11.45124      6.76229         0.794716      0.012463      0.265698
O       5.53540     11.39142     11.07858        -0.222949     -0.530182     -0.140100
O       9.47821      3.78470      2.35644         0.185764      0.029644     -0.089514
O       9.64335      3.65339     15.37595        -1.182557      1.180351     -0.032287
O       9.51877      0.00311      2.62524         0.254420     -0.989804      0.524231
O       9.43176     15.05114     15.32754         0.137357      0.822877     -0.479025
O       9.49196      3.75181      6.76816        -0.040027     -0.485960      0.064030
O       9.36042     15.07796      6.70066        -0.502097      1.078342      0.007377
O       9.62164      3.76334     11.06464        -0.117262     -0.681613      0.078571
O       9.42674     15.15635     11.15377        -0.270864     -0.056128      0.068852
O       9.43108      7.60413      2.33843        -0.179901      0.395982      0.531325
O       9.32053      7.65816     15.01271         0.374879     -1.174645      0.759799
O       9.44829      7.58954      6.70190        -0.320507     -1.208204      0.008852
O       9.24902      7.56952     10.94793         0.536687      0.356521      0.442624
O       9.38920     11.48378      2.57156         0.243693     -0.424090     -0.016056
O       9.40276     11.40618     15.35976         0.493027      0.986686     -0.022137
O       9.58829     11.28242      6.71787        -0.186226      1.213960      0.806245
O       9.54174     11.36557     10.84859        -0.053638     -0.908023      0.072000
