  # total energy = -7883.21705644 
CRSYTAL
PRIMVEC
    15.3600000000000000    0.0000000000000000    0.0000000000000000
     0.0000000000000000   15.3600000000000000    0.0000000000000000
     0.0000000000000000    0.0000000000000000    17.440000000000000
PRESSURE
1.7383 1.94874 0.424464 0.006694 0.020272 -0.038138
PRIMCOORD
320 1
Pb       3.78206      3.83114      4.34568         0.384715      0.039400     -0.077729
Pb       3.85342      3.83135     17.37600         0.115300     -0.003399     -0.007182
Pb       3.81624      0.02115      4.27879        -0.118706      0.247171      0.015030
Pb       3.69379      0.03653     17.43018         0.177159     -0.121510     -0.235065
Pb       0.01463      3.73977      4.36379        -0.493809     -0.043757     -0.429461
Pb       0.05987      3.96891     17.37966        -0.736442     -0.684122      0.275934
Pb      15.35561     15.31097      4.29748         0.182558      0.289556     -0.220099
Pb      15.23866     15.28142     17.42144         0.817350      0.590999     -0.069914
Pb       3.76927      3.72992      8.75885         0.065319      0.136430     -0.328978
Pb       3.90864     15.35794      8.60347        -0.605288      0.036609      0.892885
Pb      15.28957      3.83511      8.68169         0.113495     -0.326686     -0.480529
Pb      15.25875      0.04080      8.66218         0.582553     -0.253162      0.223362
Pb       3.65814      3.75497     13.05632         0.373033      0.474988      0.038346
Pb       3.72545     15.27675     13.00145         0.155985      0.221111      0.516240
Pb       0.00756      3.80396     13.05085        -0.328755     -0.317881      0.081609
Pb       0.03697     15.34980     13.02418        -0.354640      0.261499      0.368400
Pb       3.83950      7.63926      4.30591         0.010213     -0.041202     -0.199229
Pb       3.77484      7.59515     17.34763         0.173159      0.578314      0.305478
Pb       0.04715      7.77198      4.36897         0.008670     -0.483472      0.264970
Pb      15.11880      7.69639     17.32830         1.036344     -0.187762      0.475852
Pb       3.90704      7.66883      8.73921         0.006851     -0.339663     -0.929155
Pb       0.08254      7.59506      8.66242        -0.373938      0.317558      0.388585
Pb       3.77333      7.59907     12.95835         0.147358      0.146937      0.766884
Pb       0.04033      7.62652     13.08039        -0.389691      0.148157     -0.301694
Pb       3.77170     11.57675      4.21265         0.233147     -0.630841      0.159136
Pb       3.96680     11.55123     17.41344        -0.103886     -0.233670      0.052243
Pb      15.30160     11.57465      4.34755         0.665102      0.056893      0.176570
Pb      15.29356     11.58691     17.29768        -0.059852     -0.223958      0.160423
Pb       3.83392     11.54648      8.60678        -0.075999      0.167433      0.192116
Pb      15.24211     11.38705      8.65088         0.779102      0.399698      0.470760
Pb       3.84625     11.52239     13.16117         0.198560     -0.045938     -0.378137
Pb       0.05581     11.56667     13.11544        -0.345833     -0.356421     -0.352086
Pb       7.72388      3.73184      4.40718        -0.421354      0.424577      0.210280
Pb       7.65184      3.90959     17.35468         0.285448     -0.207034     -0.354117
Pb       7.73905      0.07291      4.31018        -0.383313     -0.010909     -0.242360
Pb       7.66506      0.06495     17.34154        -0.453065      0.002931      0.330706
Pb       7.70839      3.72553      8.75966        -0.279831     -0.216025      0.476117
Pb       7.63332     15.16812      8.62884        -0.059052      0.600548      1.071034
Pb       7.76908      3.84170     13.18214        -0.307256      0.508179     -0.567609
Pb       7.57979      0.10087     13.07642         0.194969     -0.864185      0.285168
Pb       7.67071      7.56756      4.29805        -0.196780      0.085282      0.143598
Pb       7.67821      7.73583     17.38677         0.216824     -0.764057     -0.004626
Pb       7.61070      7.69989      8.64224        -0.181310     -0.093102      0.533225
Pb       7.50733      7.66526     12.99033         1.010032     -0.002769      0.313806
Pb       7.66773     11.55294      4.32279        -0.195051     -0.208574     -0.309357
Pb       7.76880     11.49528      0.06353        -0.145999      0.472811     -0.414036
Pb       7.45544     11.50808      8.56367         0.479216      0.332003      0.779337
Pb       7.67759     11.41365     13.08016         0.016674      0.299825     -0.512684
Pb      11.43567      3.80175      4.31641         0.290980      0.568887      0.091117
Pb      11.71895      3.85724     17.38815        -0.869545      0.087486      0.411513
Pb      11.41968     15.27272      4.28042         0.353023      0.212767      0.237570
Pb      11.48491     15.30514     17.41812        -0.477495      0.203891      0.034495
Pb      11.37423      3.86840      8.69859         0.366249     -0.391538      0.620878
Pb      11.54084     15.27734      8.66236        -0.713615      0.000566      0.531874
Pb      11.59372      3.75782     13.10858        -0.269505      0.524952     -0.272607
Pb      11.61998      0.00181     12.90405        -0.420102     -0.187438      0.862333
Pb      11.42747      7.74247      4.28448         0.432355     -0.458347     -0.059253
Pb      11.59918      7.61239     17.37686        -0.545996      0.072203      0.327839
Pb      11.42780      7.64223      8.71177         0.583649      0.319581      0.646089
Pb      11.43959      7.70184     12.97248         0.601380      0.026820      0.167486
Pb      11.56930     11.45099      4.34904        -0.313723      0.237166      0.215376
Pb      11.46507     11.44228     17.39033         0.433538      0.005364      0.086975
Pb      11.61776     11.51483      8.61237        -0.524060     -0.261892      0.463637
Pb      11.51653     11.45234     12.98060        -0.062586     -0.472760      0.274382
Ti       1.86577      1.90782      2.26433        -0.700804     -0.259201     -0.111757
Ti       1.86596      1.98209     15.48014        -0.926500     -0.940279      0.654275
Ti       1.90528     13.37183      2.23634        -0.638365      0.549336     -0.654615
Ti       1.93756     13.45248     15.45122        -0.087257      0.602997     -1.290150
Ti      13.31086      1.87634      2.26308         2.149839      0.641049      0.971681
Ti      13.36644      1.79949     15.51210         1.071960      2.179790     -1.269806
Ti      13.36806     13.42320      2.37197         0.214168      0.096325     -1.171939
Ti      13.39200     13.41994     15.37736         0.100443     -0.894446     -0.339483
Ti       1.84134      1.85560      6.62729         0.240526      0.238458      1.060399
Ti       1.84857     13.40350      6.74721        -0.075286      0.326148     -1.439388
Ti      13.36095      1.84028      6.65731         0.569983      0.980082     -0.134537
Ti      13.39742     13.37847      6.61429         0.452319      0.351353     -0.560860
Ti       1.86639      1.90612     11.03642        -0.894654     -0.480502     -0.772782
Ti       1.86129     13.41527     11.07145         0.620490     -0.623891     -0.852015
Ti      13.37662      1.91733     10.97378         0.399128     -0.586981      1.697961
Ti      13.42125     13.39487     11.11308        -0.032641     -1.122030      0.392518
Ti       1.84038      5.76545      2.35809         0.319518     -0.483766     -0.905908
Ti       1.91138      5.77844     15.46120        -0.805663      0.243439     -1.814474
Ti      13.44425      5.72695      2.51331        -0.596654     -0.434995     -0.056982
Ti      13.38235      5.73559     15.31080         0.739092     -0.874995     -0.246138
Ti       1.87945      5.72853      6.70119         1.199519     -0.393262      0.583339
Ti      13.37725      5.77085      6.71292         0.569487     -0.360552     -1.766705
Ti       1.87147      5.76985     11.05031         0.555353     -0.717832     -0.047966
Ti      13.45790      5.70712     11.05841        -0.727732      0.533986      0.801993
Ti       1.97550      9.56036      2.28335         0.571700     -0.376195      1.301326
Ti       1.93329      9.61889     15.44534         0.798562     -0.261178     -0.003683
Ti      13.60975      9.58447      2.38389        -1.237654     -0.019340     -0.546452
Ti      13.48797      9.52021     15.29517        -0.963369      1.701049      0.533169
Ti       2.00911      9.56549      6.70938        -0.397556      0.212222     -1.199800
Ti      13.50830      9.51707      6.72576        -0.566342     -0.330085     -0.350044
Ti       1.96289      9.62030     11.11214        -1.105140      0.202096     -0.136932
Ti      13.51286      9.59975     11.04836        -0.659492     -0.539106      1.035906
Ti       5.75500      1.94172      2.34423        -0.235908     -0.099506     -0.221449
Ti       5.65023      1.87139     15.37479         1.660021      0.164063     -0.488730
Ti       5.67221     13.45785      2.31456         1.476880      0.214808     -0.125714
Ti       5.76842     13.39833     15.37282         0.552661      0.363609     -0.725944
Ti       5.72163      1.92700      6.72742        -0.310791     -0.048284     -1.249611
Ti       5.71844     13.47937      6.57129        -0.600778     -0.324740      0.679672
Ti       5.70532      1.92688     11.25500         0.066109      0.255259     -2.130222
Ti       5.73822     13.44564     11.15990         0.872349     -0.630628     -0.665393
Ti       5.75409      5.70455      2.31657        -0.230323      0.226283      0.893014
Ti       5.71654      5.72372     15.31862         1.520944     -0.378999      0.074275
Ti       5.79588      5.65010      6.77120        -1.443167      0.543420     -0.759147
Ti       5.73443      5.73510     11.03336         0.596374     -1.282649      1.122145
Ti       5.84531      9.59552      2.25704        -1.008590     -0.183258      1.298092
Ti       5.82148      9.54910     15.47323        -0.923315      0.341116     -0.338816
Ti       5.85064      9.58957      6.52936        -1.964218     -0.220388      0.469837
Ti       5.69430      9.54565     11.00051         1.503201      1.131930      0.004975
Ti       9.61391      1.97009      2.25553        -0.511893     -0.243048     -1.232520
Ti       9.54253      1.95639     15.35275        -0.165753      0.725115      1.179895
Ti       9.54116     13.41449      2.34422         0.340245      0.022364      0.109272
Ti       9.60783     13.48597     15.42729        -0.841847     -0.650748     -0.732154
Ti       9.57098      1.85185      6.78333        -1.070448      0.271127      0.229991
Ti       9.57858     13.37990      6.64689        -0.112893      0.533639     -0.342105
Ti       9.52410      1.86999     11.14811         0.463912      0.602855     -1.580182
Ti       9.60247     13.34256     11.08338        -0.653669      0.799129      0.193314
Ti       9.50274      5.70417      2.32544         1.615786      0.640168     -0.549653
Ti       9.66685      5.78949     15.36771        -1.193709     -0.502699      0.490313
Ti       9.57309      5.80446      6.82116        -0.512204     -1.488712     -1.505927
Ti       9.60740      5.78534     11.04381         0.080345     -0.831224     -0.392460
Ti       9.64408      9.64741      2.40719        -0.229700     -0.563092     -0.147039
Ti       9.63325      9.58502     15.42834         0.546554      0.118530     -0.937456
Ti       9.61650      9.59826      6.68064         0.670821      0.465675      0.479571
Ti       9.60160      9.57419     10.89264         0.332148     -0.017800      1.177533
O       1.81030      1.84519      0.47665         0.627801      0.342440      0.540341
O       1.78111      1.92709     13.75369         0.297030      0.281895     -1.789011
O       1.88615     13.43752      0.40768         0.129342      0.083093      0.700624
O       2.05229     13.40069     13.59656        -0.510184      0.266867      1.376464
O      13.38282      2.07200      0.52819         0.055246     -0.757037     -1.006499
O      13.37289      1.79156     13.73602         0.035298      0.224540      0.089091
O      13.29654     13.32649      0.55188         0.527017      0.291014      0.813518
O      13.48358     13.38302     13.61219        -0.351664      0.080319      0.241822
O       1.77151      1.79659      4.87765         0.244989      0.304703     -0.676250
O       1.69819     13.44251      4.92576         0.835854     -0.214539      0.729651
O      13.44683      1.79245      4.90478        -0.309982      0.113740      0.804813
O      13.35980     13.41856      4.82625         0.273384      0.318103      0.587056
O       1.78620      1.87403      9.27230         0.220364      0.096262      0.383198
O       1.94638     13.30343      9.30947        -0.185746      0.200409     -0.029639
O      13.38851      1.85832      9.26733         0.030873      0.016982     -1.702895
O      13.36910     13.27424      9.39358        -0.038211      0.048477     -1.657815
O       1.85215      5.71809      0.56028         0.157756      0.150544     -0.332376
O       1.87107      5.72405     13.62862         0.100957     -0.091602      1.082937
O      13.31823      5.70277      0.74031         0.524509      0.483681     -0.196586
O      13.35815      5.75665     13.56899         0.373638     -0.182255     -0.492102
O       2.09131      5.67816      4.96940        -0.641744      0.385992     -0.415227
O      13.51107      5.86468      4.90314        -0.741285     -0.060892      0.838730
O       1.86967      5.78309      9.30334        -0.030876      0.010318     -0.618500
O      13.38018      5.68996      9.32170         0.226895     -0.088131     -0.586917
O       1.92813      9.54826      0.59963        -0.196909     -0.125095     -2.671405
O       2.10806      9.57254     13.71946        -0.276204     -0.085017     -0.832548
O      13.50904      9.59627      0.60009         0.306638      0.060689      0.481964
O      13.47510      9.65224     13.59028        -0.069369     -0.377882     -0.942658
O       1.94478      9.48663      4.91718         0.286226      0.224730      0.567399
O      13.55096      9.42684      4.97080        -0.077320      0.241038     -0.624848
O       1.83508      9.69799      9.37856         0.387815     -0.408075     -0.633469
O      13.45374      9.61232      9.31546         0.276279      0.238316     -1.678845
O       5.88898      1.93062      0.58588        -0.846621      0.111907     -0.266025
O       5.79969      1.72871     13.60198        -0.502987      0.904979     -0.380616
O       5.65458     13.46015      0.55754        -0.040094      0.191882      0.104569
O       5.80300     13.33443     13.53979        -0.181601      0.134472      1.220062
O       5.72222      2.03852      4.93474        -0.041974     -0.591845      0.460197
O       5.65660     13.46852      4.84026         0.283913     -0.091590     -0.520349
O       5.63904      1.87305      9.44180        -0.110887      0.092866      0.414048
O       5.78846     13.30965      9.34965        -0.112158      0.308995      0.298413
O       5.82827      5.72987      0.58092        -0.472032     -0.227457     -0.531699
O       5.87009      5.65652     13.57762        -0.563756      0.654215     -0.103958
O       5.74799      5.71967      5.00032        -0.128516     -0.147739     -0.105910
O       5.69670      5.69089      9.30626         0.026830      0.305346     -0.823866
O       5.80782      9.53078      0.51654         0.134264      0.104149     -0.821473
O       5.79367      9.58988     13.70208         0.138153     -0.062641     -0.074691
O       5.85025      9.73750      4.79125        -0.379344     -0.466560     -0.059059
O       5.80586      9.48673      9.23069        -0.324994      0.353138      0.084960
O       9.69085      1.93895      0.48009        -0.546917     -0.002064      1.219463
O       9.42439      1.96924     13.58352         0.707427     -0.296314      0.079536
O       9.56641     13.38592      0.59550         0.203906      0.150706     -0.336163
O       9.69445     13.38755     13.67240        -0.348600      0.004807      0.408603
O       9.43930      2.00444      5.01963         0.527572     -0.457152     -0.082084
O       9.74033     13.53207      4.87562        -0.675297     -0.276919      0.210455
O       9.57314      1.85542      9.32811        -0.273017      0.110834      0.600305
O       9.53326     13.43371      9.34471         0.181239     -0.180649     -0.781197
O       9.65789      5.71624      0.57616        -0.403945      0.321139     -0.177398
O       9.57973      5.75850     13.62717         0.252305      0.182500     -0.250665
O       9.50564      5.65220      5.00247         0.235078      0.557409      1.152428
O       9.66134      5.74536      9.19618        -0.117226     -0.010728      0.754732
O       9.59319      9.66855      0.66774         0.060410     -0.093855     -1.110117
O       9.64081      9.51385     13.67136        -0.228911      0.524756      0.127550
O       9.66453      9.55802      4.93249        -0.361420     -0.048659     -0.289305
O       9.58200      9.51907      9.15955         0.002293      0.299419     -1.094144
O       3.77929      1.95290      2.71200        -0.013540     -0.573530     -0.175786
O       3.83769      1.95021     15.75925        -0.576025      0.080455      0.591421
O       3.84884     13.48214      2.75325        -1.229895      0.037951     -0.175175
O       3.82818     13.50649     15.83878        -0.130069     -0.186108     -0.167549
O      15.24424      1.98603      2.71184         0.895593     -0.688966     -0.030806
O       0.02700      1.95072     15.83916        -1.399153     -0.062908      0.394815
O       0.03563     13.41081      2.68763        -0.620741     -0.199041     -0.202038
O      15.28559     13.55976     15.77945         0.772964     -0.650207      0.144809
O       3.74859      1.81841      7.11928         0.120951      0.428646     -0.170667
O       3.79515     13.49870      7.07172         0.001958     -0.582275     -0.126216
O      15.29608      1.83048      7.12747        -0.679489      0.440356     -0.164805
O      15.32416     13.38643      7.07850        -0.817667      0.011797      0.148406
O       3.70822      1.96302     11.53923         0.675991     -0.215117      0.043500
O       3.88928     13.48248     11.51014        -0.947144     -0.451893     -0.170542
O      15.28902      1.75517     11.47620         0.249752      0.499050     -0.036084
O      15.35560     13.41069     11.46636         0.329599     -0.247204      0.181387
O       3.72814      5.78753      2.75486         1.526909     -0.286509     -0.115347
O       3.83945      5.72098     15.73250        -0.495366     -0.125543      0.408497
O      15.34868      5.73992      2.87320        -0.192181     -0.302303     -0.255493
O      15.23709      5.80636     15.78900         1.477932      0.227950      0.174059
O       3.82066      5.70634      7.18072        -0.449326      0.421504      0.190944
O      15.28136      5.74621      7.10102         0.647481      0.162236      0.211843
O       3.81938      5.64557     11.51219        -0.069067      0.331532     -0.250489
O       0.07478      5.70583     11.49048        -1.820776      0.080272      0.090377
O       3.85966      9.55475      2.67198         0.594361     -0.314610      0.293971
O       3.90968      9.67705     15.89911        -0.950368     -0.270496      0.081983
O       0.13374      9.59956      2.82378        -1.774291      0.344841     -0.169948
O      15.34946      9.53491     15.66389         0.512797      0.002345      0.622319
O       3.86301      9.59391      7.10586         0.297552     -0.371176     -0.122037
O       0.02935      9.52541      7.12979        -0.413703      0.117285      0.006565
O       3.89254      9.55215     11.47070        -0.803161     -0.342619     -0.099627
O       0.01430      9.68661     11.52715         1.046547     -0.840870      0.194981
O       7.61044      1.99478      2.72786         1.388199     -0.436365      0.194988
O       7.63869      1.99402     15.82521         1.041518     -0.277213     -0.140885
O       7.69567     13.39026      2.71476        -0.532451      0.049441      0.237366
O       7.57987     13.37627     15.90700         1.133497      0.498281     -0.307154
O       7.56331      1.86535      7.10241         0.859673      0.084092      0.372399
O       7.59066     13.41553      7.10425         0.227420     -0.409591     -0.721798
O       7.59820      1.91368     11.50392         1.155655     -0.591164      0.082604
O       7.75357     13.51502     11.53515        -0.681261     -0.163246     -0.003622
O       7.71339      5.66412      2.77546        -1.646536      0.079809      0.032128
O       7.65668      5.74261     15.80358         0.050165      0.511277      0.007981
O       7.62737      5.67963      7.11823         1.000936     -0.106760      0.435802
O       7.74627      5.85886     11.45261        -0.747356      0.188195     -0.325775
O       7.64979      9.73514      2.77313         0.499763      0.206118     -0.147782
O       7.71867      9.59072     15.85603        -0.133702     -0.025274      0.096263
O       7.61948      9.62034      6.98599         1.398521     -0.163164      0.156594
O       7.78058      9.40089     11.35249        -1.324794      0.336023      0.249956
O      11.51245      1.97891      2.67326        -1.576553     -0.310052      0.398627
O      11.47945      1.99963     15.88969         0.051105     -0.822964     -0.718788
O      11.49080     13.46438      2.76454         0.239748     -0.105754     -0.175366
O      11.45577     13.51376     15.83366         0.923121     -0.246314     -0.020806
O      11.41002      1.78052      7.15065         0.910332      0.096316     -0.466638
O      11.45924     13.37233      7.11208         0.804414      0.406797     -0.106370
O      11.51085      2.09131     11.51475        -0.005281     -1.035717     -0.237144
O      11.51893     13.17682     11.49074         0.196968      0.987816     -0.183581
O      11.39499      5.76473      2.81177         0.823093      0.382595      0.435500
O      11.58031      5.68499     15.87267        -0.878463      0.885699     -0.265827
O      11.51000      5.59913      7.08670        -0.832882      0.882299     -0.024431
O      11.50651      5.66147     11.50932         0.816072     -0.257201     -0.231656
O      11.56931      9.71976      2.74248         0.395455     -1.161173      0.121982
O      11.56607      9.58059     15.75555        -0.379473      0.344121      0.456311
O      11.53097      9.55806      6.98544        -0.590110      0.180620      0.417015
O      11.54637      9.62161     11.28772        -0.067720      0.190983      0.581506
O       1.85039      3.76485      2.64731         0.130196      0.506014      0.392454
O       1.90499      3.89266     15.85097         0.176508      0.220751      0.160088
O       1.88598     15.27545      2.64318         0.152450      0.682417      0.073628
O       1.84746      0.09952     15.83937         0.581501     -1.829492      0.133058
O      13.36940      3.79789      2.80796        -0.017100      0.708686      0.289734
O      13.51836      3.86910     15.74195        -0.508913     -0.379892      0.210739
O      13.38932      0.00027      2.68642        -0.021107     -0.602402     -0.273340
O      13.44339     15.33932     15.77466        -0.507522     -0.550351      0.704379
O       1.85466      3.81254      7.09274        -0.205981     -0.033679      0.002831
O       1.81104      0.02795      7.04261         0.063116     -1.217618      0.360760
O      13.38796      3.81073      6.94551         0.115671     -0.738156      0.404164
O      13.41674     15.24434      7.12380        -0.325874      0.522464     -0.143463
O       1.80051      3.79817     11.35249         0.250836     -0.106165      0.618779
O       1.83726     15.31070     11.44232         0.660619      0.145956      0.133546
O      13.50978      3.71439     11.46510         0.239281      1.549444      0.065353
O      13.39046     15.26476     11.35272        -0.463781      0.948365      0.273718
O       1.87510      7.61575      2.66015         0.116457      0.497336      0.491361
O       1.90040      7.66347     15.72211         0.357969      0.018192      0.634662
O      13.52334      7.71312      2.72241        -0.345374      0.201814      0.087185
O      13.35946      7.67862     15.77310         0.167802     -0.429152      0.110450
O       1.88520      7.69423      7.13944         0.274097     -0.749224      0.045468
O      13.31913      7.67457      7.21846         0.523732     -0.626283     -0.242684
O       1.82687      7.63938     11.49203         0.785841      0.633765      0.014891
O      13.47812      7.60903     11.46497         0.171641      0.156642     -0.110017
O       1.96491     11.46980      2.51500         0.175889      1.226088      0.786455
O       1.85065     11.53720     15.63591        -0.033163      0.484913      0.727751
O      13.45171     11.56453      2.87508         0.268556     -0.869020     -0.470878
O      13.50190     11.49857     15.76918        -0.342416      0.346409      0.002547
O       1.86983     11.48546      7.02368         0.327154      0.049586      0.309676
O      13.41462     11.48340      6.88053         0.025805     -0.088894      0.805045
O       2.02424     11.46124     11.47655        -0.084546      0.910212      0.557337
O      13.55807     11.44166     11.47234        -0.371256      0.797173      0.359688
O       5.69316      3.83091      2.79961        -0.128125      0.574220     -0.344366
O       5.81172      3.78844     15.67147        -0.701176      0.901581      0.617604
O       5.80288      0.02329      2.80985        -0.337558     -0.111894     -0.200833
O       5.84791      0.04101     15.69180        -0.387786     -1.176443      0.596949
O       5.60704      3.75376      7.14912         0.411231      0.339174      0.355685
O       5.66556     15.32899      7.09353         0.495278      0.005556     -0.244347
O       5.88960      3.85729     11.45259        -0.736880     -0.024210      0.304473
O       5.71118     15.35377     11.52694         0.051387     -0.159209      0.005697
O       5.91502      7.62079      2.66640        -0.519958      0.329226      0.217490
O       5.64998      7.65578     15.78196         0.583073     -0.223830      0.072536
O       5.82000      7.61682      7.07562        -0.526396      0.782995     -0.040511
O       5.72887      7.66953     11.40975        -0.311995     -0.546217      0.172440
O       5.65216     11.53770      2.60272         0.193983      0.100968      0.273855
O       5.81417     11.54129     15.81531        -0.553642     -0.397403      0.153223
O       5.70000     11.53289      6.94591         0.045341     -0.225072      0.224775
O       5.76334     11.45799     11.43051         0.446741     -0.274602      0.208982
O       9.54821      3.82770      2.74330         0.315697     -0.705987      0.092308
O       9.61703      3.91226     15.70839        -0.251103     -1.026319      0.019206
O       9.59233      0.03810      2.72859        -0.172458      0.167027     -0.062643
O       9.51484      0.02398     15.89630         0.423546      0.115020     -0.603951
O       9.52103      3.77974      7.29006         0.167459     -0.224469     -0.735792
O       9.43117     15.23062      7.12775         0.755398      1.192447     -0.213399
O       9.50435      3.85138     11.43098         0.081441     -0.078260      0.147668
O       9.82722      0.02286     11.43905        -0.635020     -0.417582      0.025641
O       9.38118      7.76448      2.71586         0.989564     -0.888285      0.193688
O       9.62600      7.69806     15.72385         0.180972     -0.269571      0.876145
O       9.57607      7.64906      7.23052        -0.118206      0.376961     -1.046809
O       9.83443      7.65499     11.41574        -0.943553      0.213656     -0.635374
O       9.70042     11.50718      2.79282        -0.663068      0.958600      0.266854
O       9.59451     11.55628     15.93768        -0.064845     -0.370716     -0.433564
O       9.60390     11.54787      6.96288        -0.429071     -1.345506      0.284683
O       9.50986     11.46025     11.41519         0.093863     -0.448249      0.119520
