  # total energy = -7882.28297768 
CRSYTAL
PRIMVEC
    15.3600000000000000    0.0000000000000000    0.0000000000000000
     0.0000000000000000   15.3600000000000000    0.0000000000000000
     0.0000000000000000    0.0000000000000000    17.440000000000000
PRESSURE
1.1564 1.26412 -0.21753 -0.306791 -0.379483 -0.04276
PRIMCOORD
320 1
Pb       3.84857      3.85124      4.25705        -0.329836     -0.302415      0.157415
Pb       3.76621      3.89454     17.37828        -0.032991      0.017370     -0.149026
Pb       3.88652     15.35299      4.24705        -0.624895     -0.071735      0.267534
Pb       3.96755     15.35067      0.02671        -0.841286      0.126807     -0.227466
Pb      15.28210      3.92603      4.30986         0.190916     -0.490516     -0.359031
Pb      15.21278      3.71310     17.35450         0.162855      0.734689      0.327061
Pb      15.27586     15.34955      4.37918         0.296047      0.018324     -0.193439
Pb       0.16226      0.04163     17.38196        -0.658612     -0.695090      0.278949
Pb       3.98058      3.88266      8.59136        -0.725754     -0.194793      0.300732
Pb       3.79501     15.27835      8.69707         0.039432      0.292693      0.030327
Pb       0.15988      3.72182      8.68885         0.208878     -0.098583     -0.317567
Pb       0.15191     15.29090      8.59926        -0.325759      0.231801      0.490583
Pb       3.91356      3.94171     13.09041        -0.538131     -0.149110     -0.150324
Pb       4.02474      0.02718     13.21405        -0.520310     -0.413818     -0.468098
Pb      15.26924      3.89552     12.93590         0.190674     -0.947609      0.923938
Pb      15.31317      0.00763     13.02487         0.611099      0.160362      0.149040
Pb       3.77539      7.65379      4.33830         0.260734     -0.175011     -0.082624
Pb       3.88135      7.77479     17.43018        -0.458729     -0.246842      0.165601
Pb      15.18228      7.48343      4.30735         0.432455      0.558225     -0.069672
Pb       0.20971      7.62257     17.42858        -0.655917      0.109371      0.389796
Pb       3.76673      7.62487      8.63946         0.340025     -0.464398      0.053270
Pb      15.29563      7.72135      8.63482         0.607772      0.102010     -0.107664
Pb       3.85549      7.80872     13.09249        -0.133049     -0.379225     -0.315202
Pb      15.28091      7.74663     12.93003         0.426829     -0.641028      0.224989
Pb       3.88783     11.40696      4.38625         0.046798      0.624582      0.025960
Pb       3.68721     11.47304      0.01934        -0.097154      0.088886     -0.496790
Pb      15.31806     11.38036      4.33243        -0.326280      0.088005     -0.116250
Pb       0.08800     11.39083      0.09848        -0.277809      0.533611     -0.653324
Pb       3.77309     11.46946      8.65816        -0.208702      0.253178      0.168952
Pb       0.09554     11.64968      8.61410        -0.201006     -0.987770      0.280719
Pb       3.73996     11.58496     13.02150         0.580650     -0.094923      0.229408
Pb      15.12594     11.44508     12.95767         1.367975      0.480351      0.806653
Pb       7.56947      3.95075      4.23305         0.204213      0.202245      0.359589
Pb       7.68787      3.81559     17.40594        -0.209790      0.097118     -0.427557
Pb       7.55030     15.31384      4.25012         0.384319     -0.183422      0.536185
Pb       7.82485     15.25202      0.02067        -0.048272      0.378671     -0.305120
Pb       7.70226      3.81481      8.64498        -0.479383     -0.068403      0.791652
Pb       7.70252      0.09639      8.69586        -0.352829     -0.607683      0.208431
Pb       7.52605      3.66685     13.00980         0.220179      0.806556     -0.075056
Pb       7.71728     15.09951     13.13858        -0.905413      0.114588     -0.427248
Pb       7.62931      7.79369      4.38097        -0.328484     -0.425718     -0.281695
Pb       7.73419      7.53725     17.36376        -0.182278      0.660712      0.671176
Pb       7.67365      7.57577      8.72900        -0.072366     -0.059800     -0.178781
Pb       7.78066      7.64526     13.10392        -0.532336     -0.138462     -0.538198
Pb       7.65211     11.48930      4.29166        -0.257850      0.212923     -0.202648
Pb       7.67702     11.44365     17.31901         0.385751     -0.100125      0.439570
Pb       7.75001     11.47591      8.79955        -0.252659      0.046511     -0.071275
Pb       7.57351     11.52541     13.06390        -0.698458      0.062519      0.041322
Pb      11.58767      3.92569      4.35617        -0.570671     -0.336074      0.347850
Pb      11.31240      3.78551     17.36123         0.294071     -0.146477     -0.538835
Pb      11.53434      0.12974      4.33970        -0.368060     -0.446239      0.128885
Pb      11.66889      0.06347     17.35717        -0.129229     -0.355531      0.196157
Pb      11.68624      3.68398      8.67600        -0.651616      0.030743      0.150858
Pb      11.51978      0.02033      8.66880        -0.215681     -0.338917     -0.296485
Pb      11.41766      3.90193     12.87322         0.267464     -0.295222      0.962986
Pb      11.43170     15.31106     13.12228         0.312060      0.207380     -0.415723
Pb      11.53586      7.65941      4.40926         0.144535      0.378091      0.108087
Pb      11.42598      7.69431     17.32606         0.478855      0.192245      0.046291
Pb      11.49213      7.60256      8.66910        -0.494699      0.754882      0.009002
Pb      11.61627      7.66902     13.04121        -0.296610      0.065238     -0.403450
Pb      11.39735     11.56348      4.35543         0.789258     -0.025979     -0.000863
Pb      11.61632     11.56261     17.40422        -0.043067     -0.292034      0.109617
Pb      11.36891     11.53043      8.74605         0.590910     -0.220046     -0.504601
Pb      11.42562     11.59333     13.07234         0.124538     -0.579349      0.014937
Ti       1.81503      1.93470      2.30279         0.070294     -0.274225      1.721798
Ti       1.85324      2.00441     15.40016        -0.015994     -0.954316     -1.861765
Ti       1.79972     13.40570      2.43865         0.231855      0.232474     -1.673697
Ti       1.92469     13.52925     15.38823        -1.247959     -0.848839      1.406002
Ti      13.38086      1.91259      2.34026         0.156186     -0.057561      0.207845
Ti      13.39154      1.96680     15.27386        -0.516616     -0.570508      2.608484
Ti      13.34532     13.45337      2.39078         0.582983     -0.420881     -0.293494
Ti      13.47344     13.39072     15.38369         0.576530      0.605497      0.392160
Ti       1.87902      1.81472      6.53167         0.478542      0.645805     -0.717366
Ti       1.89480     13.37921      6.49342         0.724357     -0.195549      1.934065
Ti      13.46845      1.85427      6.66781        -0.229369      0.305341      0.703968
Ti      13.38701     13.42010      6.65210        -1.170206     -0.906110     -0.833718
Ti       1.89860      1.92629     11.09495        -0.216767     -1.144640      0.407437
Ti       1.86014     13.43491     11.12119         0.724890      0.730136      0.205589
Ti      13.33258      1.77890     11.09589         0.671977      0.928978     -1.524504
Ti      13.38514     13.39177     11.06657         0.612681      0.251925      0.105841
Ti       1.90522      5.70392      2.34715        -0.919790      0.617255     -0.693655
Ti       1.84536      5.78862     15.37947         0.437647      0.190615      0.559799
Ti      13.28334      5.74585      2.14837         1.264777     -0.507594      3.128745
Ti      13.40017      5.77124     15.35903        -0.029206     -0.261918     -0.414929
Ti       1.81546      5.69075      6.57203         1.770365     -0.668845      0.500833
Ti      13.40637      5.71149      6.76062         0.194106     -0.321032      0.340715
Ti       1.93395      5.71048     11.02266         0.671174     -0.018175     -1.206175
Ti      13.42758      5.70560     10.92417        -0.223807     -0.096747      1.907709
Ti       1.99217      9.54574      2.41646        -1.591367     -0.507005     -0.297931
Ti       1.91218      9.61568     15.31644         0.024988     -0.214557      1.906065
Ti      13.47139      9.57045      2.35062        -0.800069      0.164222     -0.279042
Ti      13.47705      9.52998     15.39920        -0.017287      0.443727      0.941016
Ti       1.97808      9.46206      6.66273        -1.057729      0.578504      0.164735
Ti      13.42795      9.57709      6.73613        -0.573208      0.059941     -1.175887
Ti       1.94346      9.56732     11.03653         0.561104      0.708623     -1.941316
Ti      13.43447      9.58746     10.96180        -1.415296     -0.066156     -1.173402
Ti       5.76014      1.92090      2.26458        -1.290019     -0.028776     -0.067511
Ti       5.68972      1.91255     15.45862         0.677234     -0.181740      1.347857
Ti       5.66711     13.37509      2.27334        -0.357424      0.405544      1.093804
Ti       5.69243     13.37719     15.56029         0.550746     -0.299875     -2.835532
Ti       5.64437      1.84240      6.63628        -0.471870      0.169389      1.099013
Ti       5.71933     13.41159      6.73650        -0.583524      0.057824     -1.407303
Ti       5.66329      1.83723     11.09883        -0.652178     -0.162151     -0.912676
Ti       5.66435     13.35100     11.02106         0.786763      0.173327      1.239157
Ti       5.66958      5.75623      2.19217         0.649197      0.565896      0.531180
Ti       5.72637      5.80896     15.44321        -0.116833     -0.985306     -0.929129
Ti       5.72062      5.71421      6.60803        -0.408789      0.508634      0.269152
Ti       5.70270      5.76120     11.08796         0.448661     -0.924153     -1.634741
Ti       5.77894      9.58079      2.30939         0.089673     -0.783138     -0.583772
Ti       5.80626      9.52347     15.38687        -0.931557      1.382623     -0.139847
Ti       5.80580      9.61087      6.76248        -0.606259     -0.475236     -1.499395
Ti       5.76087      9.51457     10.96893        -0.566278      0.828324      0.979139
Ti       9.49281      2.00458      2.42666         0.721865     -0.365250     -0.488311
Ti       9.51531      1.91203     15.24850         0.534371      0.518776      1.118757
Ti       9.52209     13.49892      2.35596         0.512141     -0.122663     -1.272227
Ti       9.62056     13.44806     15.40810        -0.037246     -1.019110      0.711627
Ti       9.51178      1.90098      6.68736         0.622663     -0.580906     -0.116534
Ti       9.44697     13.38522      6.67533         1.081182      0.873496      0.837731
Ti       9.47697      1.81928     11.09753         0.263535     -0.008566      0.263291
Ti       9.58572     13.32885     11.06415        -1.223155      1.274446     -0.486087
Ti       9.56776      5.84584      2.35623        -0.671571     -0.905670     -0.388178
Ti       9.58021      5.85400     15.27071        -0.361354     -0.994395     -0.599722
Ti       9.55838      5.69047      6.76820        -0.009439      0.079740     -0.973856
Ti       9.56640      5.73655     11.02552        -0.869609     -0.319544      0.733692
Ti       9.68157      9.61314      2.34215        -0.644450      0.217432     -1.029432
Ti       9.59213      9.62771     15.38086         0.550181     -0.041340      0.782472
Ti       9.49995      9.59805      6.59235         1.764272     -0.905467      1.442454
Ti       9.51802      9.54736     11.10478         0.850423     -0.376602     -1.787533
O       1.90355      1.86678      0.55797        -0.227984      0.340516     -0.748694
O       1.63345      1.86499     13.60997         0.985540      0.416904      1.322469
O       1.92764     13.39628      0.55297        -0.280466      0.076465      1.402637
O       1.89507     13.47188     13.68631        -0.183301      0.043656     -1.357967
O      13.38229      1.88594      0.60106        -0.150561      0.099526     -0.827389
O      13.26357      1.91671     13.60308        -0.007579     -0.314939     -2.639736
O      13.35680     13.40198      0.60043         0.034955      0.103208      0.841644
O      13.42590     13.43781     13.58921        -0.211547     -0.561410      0.418664
O       1.75540      1.81173      4.75592         0.365478      0.223383      0.734221
O       1.87630     13.33160      4.79652         0.077991     -0.090164     -1.555513
O      13.43846      1.86727      4.93496        -0.009550     -0.170869     -0.623748
O      13.25315     13.49209      4.85692         0.447060     -0.227742      1.388238
O       1.89691      1.80155      9.32672        -0.206262      0.417553     -0.096750
O       2.04218     13.44293      9.37239        -0.710306     -0.088242     -0.422164
O      13.34610      1.82904      9.25872         0.029345      0.096850      0.818266
O      13.35641     13.21165      9.33127        -0.017464      0.459522     -0.159789
O       1.81437      5.74996      0.57886         0.360320     -0.177053     -0.334736
O       1.96075      5.84803     13.64587        -0.234359     -0.105533      0.108399
O      13.23093      5.76524      0.47860        -0.029987     -0.198477     -2.252776
O      13.41737      5.77410     13.56461        -0.008899      0.528020      0.610819
O       1.85100      5.72337      4.80570         0.117629      0.076436     -0.117068
O      13.39340      5.71099      5.00449        -0.207229      0.209212     -0.319143
O       1.96259      5.58676      9.17508        -0.345320      0.228396      1.612272
O      13.51779      5.58805      9.20825         0.104131      0.234581     -0.346278
O       1.87584      9.45876      0.62585         0.295063      0.541439      0.268595
O       1.92944      9.55734     13.60425        -0.230056     -0.195400     -1.761884
O      13.40979      9.65746      0.57668         0.104698     -0.253657      0.548124
O      13.44612      9.44767     13.61476         0.111961      0.167170     -0.048299
O       1.98379      9.38068      4.88023        -0.031993      0.686334      0.650192
O      13.40701      9.33659      4.93243         0.134274      0.463301      0.833811
O       1.96024      9.65053      9.16263        -0.020874     -0.373198      1.800358
O      13.42774      9.72873      9.18860         0.172926     -0.475451      0.512016
O       5.78335      1.83039      0.49766        -0.156256      0.218321      0.038452
O       5.71157      1.90180     13.74003         0.001417      0.140603     -1.692197
O       5.51176     13.48702      0.53049         0.544820     -0.227553     -0.823410
O       5.77418     13.22688     13.64930        -0.072322      0.632821      1.938925
O       5.51821      1.84663      4.92020         0.536956     -0.121723     -1.013549
O       5.58596     13.34619      4.88885         0.554189      0.118197      0.999071
O       5.59177      1.83497      9.33637         0.175388     -0.000702      0.039287
O       5.72312     13.41674      9.29068        -0.062814     -0.031325     -0.747356
O       5.80000      5.71662      0.44257        -0.386842     -0.028001     -0.457049
O       5.76229      5.70615     13.60727        -0.331887      0.226870      1.260545
O       5.70806      5.81007      4.83349         0.326643     -0.187025      0.099281
O       5.64653      5.56479      9.25074         0.121441      0.733629      0.897611
O       5.80663      9.48097      0.53079        -0.166418      0.683577      0.680076
O       5.75127      9.59187     13.61405        -0.170340     -0.362667      0.668274
O       5.73790      9.58079      4.86990         0.221710      0.107297      1.361214
O       5.80156      9.52579      9.21207         0.037340      0.189553     -0.299341
O       9.46535      2.07182      0.64383         0.135854     -0.050142      0.136156
O       9.54211      1.84338     13.50214         0.001401     -0.234963     -0.137638
O       9.50961     13.44728      0.55342         0.106893      0.054975      0.692183
O       9.51350     13.23169     13.61609         0.503386      0.824979      0.529084
O       9.53824      1.72464      4.94997        -0.362655      0.818044      0.153636
O       9.39615     13.39779      4.94514         0.192574     -0.109173     -1.039286
O       9.60488      1.84031      9.35441        -0.297974     -0.083173     -0.777327
O       9.48921     13.36808      9.29501         0.282589     -0.130482     -0.176256
O       9.52007      5.75600      0.56171         0.463134      0.006900      0.372563
O       9.48268      6.01645     13.49251         0.482973     -0.543882      0.440024
O       9.50813      5.52034      4.96871         0.031072      0.788640      0.987519
O       9.54674      5.77258      9.30429        -0.092567     -0.184261     -1.231858
O       9.50060      9.68442      0.52790         0.495891     -0.588797      1.209853
O       9.62878      9.53336     13.63925        -0.062670     -0.025173     -1.043589
O       9.55924      9.58145      4.84812        -0.394294      0.051478     -0.395379
O       9.45183      9.66698      9.29715        -0.104143     -0.380304      0.415154
O       3.73647      1.97580      2.76342         0.603346     -0.553778     -0.604926
O       3.81059      1.97115     15.75777        -0.618178      0.097944      0.204341
O       3.71314     13.35364      2.74569         1.101358      0.155885     -0.098207
O       3.77086     13.39415     15.75985         0.622839      0.086108      0.474302
O      15.24944      1.97368      2.67126         0.494168      0.139670      0.075730
O      15.28802      2.03718     15.76570        -0.423902     -0.874223      0.213247
O      15.26075     13.35267      2.85319         0.100318     -0.156925     -0.207435
O      15.34425     13.41179     15.92886         0.045874      0.193159     -0.522702
O       3.73820      1.84909      7.10174         0.413328     -0.159992     -0.384530
O       3.79304     13.42693      7.13658        -0.094198     -0.568808     -0.435131
O       0.00088      1.77919      7.07030        -0.128107      0.237314      0.234649
O       0.05348     13.42053      7.03576        -1.293096     -0.310841     -0.166936
O       3.80707      1.74667     11.58708        -0.556969      0.633952      0.088635
O       3.84052     13.40481     11.50648        -1.132286      0.251109      0.062229
O      15.27253      1.93683     11.41382        -0.313542      0.171739      0.048228
O      15.27727     13.38061     11.49678        -0.145961     -0.089852     -0.280798
O       3.79708      5.62514      2.62862         0.392996      0.296812      0.084743
O       3.79643      5.85763     15.84397         0.308638     -0.992959     -0.209863
O      15.33354      5.69125      2.68130        -1.548416      0.261842     -0.039860
O      15.31868      5.67023     15.82796        -0.838156      0.593158     -0.352877
O       3.78405      5.78161      7.03828         0.530666     -0.404030     -0.242944
O       0.04511      5.71730      6.99933        -1.561103      0.150504      0.500554
O       3.76036      5.77250     11.53847         0.174596     -0.262399      0.008851
O       0.10448      5.67284     11.56229        -1.706612      1.060748     -1.282741
O       3.79121      9.59627      2.82958         1.244705      0.402572     -0.474280
O       3.83816      9.49790     15.84344        -0.053246      0.491280     -0.307045
O      15.28395      9.51562      2.83104         0.474524     -0.011240     -0.242710
O       0.02888      9.53575     15.89387        -0.564437      0.070797     -0.565821
O       3.91930      9.56996      7.10704        -1.063553      0.093246     -0.249030
O       0.05276      9.60971      7.07435        -0.620991     -0.701635      0.040358
O       3.84226      9.72349     11.46114        -0.757637     -0.966597     -0.242378
O      15.31580      9.53921     11.33732         0.351410      0.215725      0.223301
O       7.55353      1.88992      2.76305         0.437115      0.313572      0.174130
O       7.68347      1.91269     15.74203         0.738074     -0.140111      0.090936
O       7.61933     13.41375      2.66883        -0.420799      0.104878      0.126030
O       7.65449     13.48816     15.84265         0.486245     -0.388258      0.061214
O       7.56867      1.86991      7.12324         0.925147      0.394733     -0.342243
O       7.59969     13.52578      7.11573         0.495988     -0.681060      0.026043
O       7.49381      1.88866     11.42124         1.461829      0.230899      0.339724
O       7.67760     13.40599     11.54020        -0.530816     -0.959291     -0.291866
O       7.58754      5.72928      2.52865         0.432261      0.302652      0.911203
O       7.68031      5.75940     15.74578        -0.256613      0.118856      0.115990
O       7.62908      5.61459      7.20908        -0.060262      0.404635     -0.629382
O       7.59994      5.68317     11.41935        -0.013736      0.150847      0.090756
O       7.63061      9.48651      2.78111         0.358098      0.462386     -0.150537
O       7.65524      9.54398     15.72830         0.567770      0.257334      0.148819
O       7.66587      9.57912      7.06839         0.285168      0.004365     -0.062761
O       7.60319      9.62113     11.49661         0.150561     -0.345408     -0.243141
O      11.39778      1.91052      2.75666         0.256170     -0.306624      0.055806
O      11.50093      1.89065     15.90697        -0.864610     -0.058741     -0.592090
O      11.44862     13.48922      2.79180        -0.393809      0.017616     -0.085512
O      11.55202     13.38775     15.87307        -0.726576     -0.087771     -0.681294
O      11.53662      1.96144      6.98044        -0.699673     -0.811856      0.517232
O      11.42188     13.39695      7.12791         0.588466      0.142901     -0.124741
O      11.40391      1.64430     11.40239         0.391943      0.704974      0.380150
O      11.47059     13.45855     11.53226         0.120881     -0.094776     -0.103482
O      11.46269      5.68519      2.78106        -0.405123      0.256400     -0.394586
O      11.38713      5.84705     15.63860         1.393806      0.218965      0.423095
O      11.54122      5.73566      7.25279        -0.720859     -0.116733     -0.606293
O      11.47006      5.76626     11.41626         1.000020      0.145044     -0.374273
O      11.53750      9.57271      2.83267        -0.774871     -0.180111     -0.353958
O      11.54560      9.54188     15.78151        -0.287798      0.157201     -0.043572
O      11.49980      9.43782      6.98871        -0.936931     -0.078968      0.371777
O      11.44783      9.49858     11.27078         0.613648      0.122348      0.745095
O       1.82266      3.85148      2.72433         0.189631     -0.943460      0.071751
O       1.71410      3.84100     15.81805         1.523599      0.548215      0.098069
O       1.68705     15.33582      2.75107         0.652874     -0.075318     -0.461598
O       1.88729      0.06635     15.83106         0.062713     -0.279442     -0.131194
O      13.28456      3.78240      2.74178         0.399193      1.091612     -0.255702
O      13.22220      3.83268     15.61403         0.515704      0.932718      0.734769
O      13.51227      0.00761      2.84875        -0.983961     -0.153750     -0.582499
O      13.34617     15.32871     15.68215         0.400821      0.236828      0.233894
O       1.84346      3.72419      6.86046        -0.082870      0.464337      0.435168
O       1.88926     15.26226      6.95330         0.049624      0.182448      0.179335
O      13.40267      3.78936      6.99043         0.570556     -0.218373      0.528874
O      13.45333     15.24360      7.14210        -0.312460      0.674982     -0.135973
O       1.87527      3.81091     11.49315         0.537883      0.189951     -0.212577
O       1.76539      0.00736     11.48298         0.157149     -0.523349      0.047066
O      13.31714      3.80800     11.46772         0.094219      0.306088     -0.606646
O      13.45578     15.33118     11.45965        -0.390863     -0.956250     -0.019819
O       1.89273      7.65453      2.74179         0.210894     -0.436316      0.086862
O       1.90560      7.69835     15.90768        -0.151069     -0.646838     -0.693953
O      13.28249      7.56017      2.80760         0.465727      0.447340     -0.743464
O      13.41777      7.66654     15.84774        -0.013100     -0.392027     -0.286573
O       1.92732      7.57799      7.08257        -0.167527      1.009418      0.024940
O      13.40356      7.60370      7.20638         0.634737      0.221222      0.113807
O       2.00644      7.70947     11.35831        -0.568623     -0.185786      0.000695
O      13.42294      7.64169     11.29412         0.315497     -0.429949      0.028173
O       1.83365     11.45186      2.66306        -0.212100     -0.054592      0.469040
O       1.86508     11.43774     15.79501         0.407405      0.717001      0.260869
O      13.35495     11.48770      2.83302         0.062189     -0.086210     -0.087240
O      13.44746     11.48421     15.86467         0.083707     -0.265387     -0.572762
O       1.81543     11.45234      7.05612         1.234918      0.308818     -0.574446
O      13.27879     11.44766      6.95042         0.750037      0.750685      0.094729
O       1.83178     11.55761     11.40462        -0.024610     -1.074573      0.374060
O      13.36245     11.44306     11.57976        -0.541969      0.230854     -0.689027
O       5.72673      3.82640      2.61716        -0.117170     -0.213755      0.073198
O       5.79468      3.80480     15.84041        -0.408972      0.938650      0.006432
O       5.68863     15.33872      2.74398        -0.211011     -0.145173     -0.536849
O       5.73733     15.32078     15.77597        -0.423256      0.030084      0.323186
O       5.67145      3.81102      6.87755         0.032770     -0.336703      0.451336
O       5.70130     15.31628      7.10956        -0.068332      0.215711     -0.131716
O       5.58725      3.86194     11.39526         0.072268     -1.246468      0.885472
O       5.71028     15.22771     11.58974         0.359291      0.834730     -0.111079
O       5.56608      7.69250      2.59731         0.396529     -0.643033      0.318020
O       5.74783      7.68294     15.90829         0.280865     -0.754486     -0.737230
O       5.75809      7.63083      7.09092         0.325213      0.212460     -0.099197
O       5.61242      7.61162     11.40757         0.356714      1.262891     -0.064191
O       5.83610     11.54254      2.63808        -0.717547     -0.850766      0.123058
O       5.76610     11.49139     15.82185        -0.185731     -0.336787      0.424421
O       5.82284     11.53303      7.09038        -0.263807     -0.702402      0.107809
O       5.61859     11.44789     11.44928         1.048661      0.234899     -0.344246
O       9.52919      3.88349      2.88262        -0.235371     -0.371932     -0.567374
O       9.69130      3.85721     15.51245        -0.610486     -0.444419      0.525761
O       9.40648      0.02422      2.72026         0.341860     -0.165899     -0.038813
O       9.65729     15.28184     15.85474        -0.336818      0.977435     -0.666781
O       9.61462      3.84554      7.27835        -0.133822     -1.340845     -0.574328
O       9.56459     15.29094      7.10943         0.044208      1.255153      0.162255
O       9.58644      3.79563     11.45014        -0.401926     -0.455130     -0.069729
O       9.37264     15.27324     11.44892         0.684993      0.257908      0.296648
O       9.58073      7.69566      2.80435         0.012484     -0.489828     -0.250730
O       9.56225      7.71955     15.82608        -0.193007     -0.215457     -0.124710
O       9.44223      7.57845      7.07249         0.375978      0.765464     -0.020049
O       9.49972      7.60740     11.30140        -0.292575      1.145014      0.635371
O       9.58260     11.49266      2.67319        -0.233308      0.230492      0.540747
O       9.60748     11.48070     15.77662        -0.256709      0.603372      0.075548
O       9.65398     11.44077      7.08221        -0.949300      0.295054     -0.272626
O       9.59046     11.47754     11.30416         0.160390     -0.157790      0.910055
