  # total energy = -7877.96811602 
CRSYTAL
PRIMVEC
    15.2000000000000000    0.0000000000000000    0.0000000000000000
     0.0000000000000000   15.2000000000000000    0.0000000000000000
     0.0000000000000000    0.0000000000000000    17.000000000000000
PRESSURE
7.8099 8.13215 2.64737 0.026616 0.259745 0.041604
PRIMCOORD
320 1
Pb       3.91187      3.66224      4.17107        -0.154160     -0.126405     -0.160778
Pb       3.60879      3.65065     16.86060         0.786355      0.053854      0.695428
Pb       3.99403     14.95355      4.08263        -0.955674      0.718515      0.728134
Pb       3.61667     15.14049     16.90054         0.389878      0.415329      0.184949
Pb      15.18311      3.49243      4.19668        -0.119015      0.990757      0.145592
Pb      15.08249      3.92648     16.97182         0.004460     -0.437755      0.176099
Pb      15.12502     14.89449      4.17714         0.288249      0.937511      0.210466
Pb      15.05717      0.01311      0.10687        -0.174026     -0.140301     -0.252626
Pb       3.47339      3.96064      8.52476         1.079156     -1.014985      1.096280
Pb       3.80793      0.06764      8.34103        -0.551724     -0.242357     -0.150122
Pb      15.17015      3.81477      8.40991        -0.069214      0.131879      0.188988
Pb       0.10373      0.11145      8.20617        -0.112483     -0.635473      0.414826
Pb       3.72949      3.78201     12.72324         0.238692      0.153022      0.402407
Pb       3.76849      0.04863     12.72542        -0.256221     -0.302697      0.723096
Pb      15.03347      3.97035     12.75610         0.878905     -0.594747      0.359131
Pb      15.05889      0.01454     12.66751         0.091241     -0.057114      0.387158
Pb       3.90373      7.43572      4.14792        -0.396713      0.319450     -0.335438
Pb       3.60640      7.47829     16.82177         0.910707      0.280327      1.755778
Pb      15.18934      7.43358      4.28881         0.185982      0.173716     -0.316773
Pb      15.00799      7.50880      0.15917         0.097655      0.447646     -0.311018
Pb       3.79839      7.51284      8.58178        -0.095613      0.414748     -0.279185
Pb       0.09818      7.67811      8.47360         0.265620     -0.095682      0.088627
Pb       3.77857      7.76183     12.85709        -0.275658     -0.609102      0.153470
Pb      15.18391      7.77032     12.87191         0.449319     -0.317237     -0.481164
Pb       4.09365     11.26336      4.13651        -0.863509     -0.180382      0.098440
Pb       3.67057     11.39468     16.74625        -0.083217     -0.127354      0.740549
Pb       0.13166     11.23044      4.21808        -0.318120      0.033266      0.097522
Pb      15.01805     11.35413      0.00127         0.546213      0.118058      0.627957
Pb       3.81252     11.41870      8.45252         0.083612     -0.285785     -0.029836
Pb       0.21215     11.41108      8.35582        -1.065137      0.023371      0.772036
Pb       3.90053     11.61177     12.64151        -0.340065     -0.518463      0.364468
Pb       0.04528     11.57601     12.76897        -0.018300     -0.596298     -0.375989
Pb       7.60762      3.86460      4.37898         0.111429     -0.683977     -0.480193
Pb       7.55202      3.77085     16.89762         0.232171      0.065253      0.188423
Pb       7.58731     15.14952      4.24063         0.114540      0.425981     -0.440282
Pb       7.51895     15.19255     16.86203         0.311864      0.330479      0.147413
Pb       7.28608      3.73434      8.74176         0.550161      0.613670     -0.035785
Pb       7.54925      0.06077      8.65952         0.125886     -0.201609     -0.775448
Pb       7.65888      3.76564     12.70422        -0.510009      0.338285      0.510710
Pb       7.49520     15.01514     12.74182         0.426538      0.619569      0.591820
Pb       7.46794      7.52072      4.10104         0.267217      0.155076      0.062250
Pb       7.78152      7.50441      0.03956        -0.439514     -0.384817     -0.395940
Pb       7.50446      7.50553      8.59593         0.360710      0.544545     -0.192421
Pb       7.62086      7.63905     12.71097         0.374841     -0.069514      0.349438
Pb       7.64877     11.50420      4.28251         0.252206     -0.802410     -0.274921
Pb       7.40504     11.33566     16.97058         0.805712     -0.157878     -0.030721
Pb       7.68653     11.31181      8.61429        -0.082471     -0.471397     -0.268845
Pb       7.72455     11.54152     12.77444        -0.823811     -0.822720      0.323382
Pb      11.25388      3.80388      4.40756         0.773976     -0.499375      0.402121
Pb      11.28462      3.83935     16.91879         0.342842     -0.057389      0.693241
Pb      11.29405     15.16217      4.28154         0.012230      0.445900      0.004820
Pb      11.29347      0.15079      0.07810         0.185752     -0.258347      0.036934
Pb      11.34385      3.82266      8.49588         0.549209      0.120283     -0.175396
Pb      11.52257     15.15786      8.57028        -0.099387      0.587405     -0.935773
Pb      11.43032      3.81548     12.58919        -0.315088      0.245216      0.894575
Pb      11.38865      0.01212     12.62042        -0.073802     -0.284268      0.632014
Pb      11.27440      7.38019      4.32379         0.517087      1.103097      0.165627
Pb      11.45525      7.66356      0.07652         0.183661     -0.525509     -0.183893
Pb      11.48297      7.63247      8.55920        -0.348269      0.111575     -0.559356
Pb      11.57108      7.79213     12.79717        -0.939469     -0.680346     -0.169871
Pb      11.38810     11.47192      4.28502        -0.783112     -0.643679      0.030922
Pb      11.35116     11.27209      0.08385         0.255787      0.014232      0.194383
Pb      11.47667     11.32478      8.34938        -0.355428     -0.397568      0.328962
Pb      11.48473     11.41641     12.70497        -0.068593      0.170463     -0.089569
Ti       1.87702      1.72943      2.24923         0.267167      0.262493      0.235323
Ti       1.74191      1.85642     14.94370         0.736599      0.113620     -0.563975
Ti       1.83988     13.13340      2.20405         0.264884      1.482176     -0.376749
Ti       1.72401     13.36026     14.97349        -0.102395     -0.431128     -0.512364
Ti      13.21959      1.84489      2.30278        -0.093356      0.143963      0.350918
Ti      13.19596      1.87879     15.01555        -0.143009      0.056834      0.106260
Ti      13.16906     13.18293      2.32809        -0.015527      1.229460     -1.207866
Ti      13.11217     13.28699     15.06524         1.214028      1.162004     -0.155616
Ti       1.97041      1.98151      6.35347        -0.004005     -1.335474     -0.017051
Ti       1.91687     13.21531      6.32262         0.028834      1.589179      0.068911
Ti      13.29991      1.87699      6.36572        -0.498719      0.341946      0.183564
Ti      13.22557     13.25436      6.42872         1.105741      0.264929     -0.061730
Ti       1.91141      1.84200     10.73422        -0.645602      1.199596     -0.193228
Ti       1.81614     13.38148     10.62876         0.129037     -1.551912      0.363659
Ti      13.35251      1.92817     10.66973        -0.580959     -0.454064     -0.605067
Ti      13.28791     13.25240     10.57537         0.138918     -0.348071      1.646519
Ti       1.88932      5.55779      2.22986         0.470808     -0.057528     -0.793927
Ti       1.91754      5.69286     15.00481        -1.226944     -0.575050      0.343559
Ti      13.28757      5.67869      2.36164         0.072224     -0.963358     -0.156158
Ti      13.25310      5.70027     14.93837        -0.430269      0.716954      0.715016
Ti       1.93082      5.73594      6.39756        -0.566865      0.242253      0.381195
Ti      13.33977      5.72676      6.53884         0.410292     -0.966364     -0.430734
Ti       1.87409      5.74155     10.90776        -0.238691     -0.286822     -0.924514
Ti      13.32775      5.74892     10.71606         0.276898     -0.006171     -0.599084
Ti       1.88553      9.38354      2.22101         0.189891     -0.565993     -1.114174
Ti       1.83591      9.50737     15.05375        -0.850727     -0.070907     -0.809516
Ti      13.23139      9.44598      2.47471         0.013929     -0.534694     -1.194671
Ti      13.30559      9.56485     14.98857        -0.157150     -0.985726      1.371086
Ti       1.99650      9.52416      6.37742         0.014911     -1.018526     -0.047906
Ti      13.38472      9.45800      6.43291        -0.104054      0.412588     -1.137051
Ti       1.96766      9.55194     10.77334        -2.565398      0.121881     -0.356944
Ti      13.38711      9.49838     10.72445         0.575859      1.035110     -0.753180
Ti       5.66947      1.77681      2.05690         0.795203      0.889865      0.567998
Ti       5.71491      1.87907     14.94242        -0.876270      0.186486      0.128133
Ti       5.68588     13.16273      2.02458        -0.220559      0.070568      0.530781
Ti       5.66377     13.25790     15.03246         0.055791      0.987385     -0.526959
Ti       5.77494      1.89596      6.50771        -1.196866      0.075766     -0.175950
Ti       5.72668     13.23909      6.50939        -0.055188     -0.044573     -0.440933
Ti       5.66289      1.85149     10.81104         0.269479      1.289271     -0.018246
Ti       5.58645     13.34732     10.63264         0.802444     -1.601334      1.868319
Ti       5.66147      5.50239      2.07027         1.287297      0.848835     -1.368378
Ti       5.68826      5.64798     15.06541         0.582481     -0.317154     -0.082147
Ti       5.64430      5.62559      6.63609         1.033756     -0.025972     -0.908517
Ti       5.64299      5.72501     10.91538        -0.231069     -1.169859     -0.998388
Ti       5.68328      9.32486      1.92911        -0.356473      0.015463      1.017669
Ti       5.70101      9.38542     14.95018        -0.356896     -0.175039     -0.003726
Ti       5.76082      9.48823      6.52386        -0.113032     -0.453675      0.025777
Ti       5.67368      9.41224     10.77992         1.029227      1.940636     -0.721860
Ti       9.45446      1.91995      2.28362        -0.379911      0.443976     -0.321998
Ti       9.47555      1.87870     14.89161         0.054726      0.278523      0.771812
Ti       9.39476     13.27959      2.11258         0.520369     -0.714928      0.694187
Ti       9.49648     13.19220     15.14532        -1.150004      1.536709     -0.957091
Ti       9.48339      1.88157      6.64720         0.776996      0.394053     -1.586856
Ti       9.42393     13.29484      6.61834         0.573214     -0.164122      0.199073
Ti       9.49573      2.00780     10.73364        -0.320807     -0.434145     -0.030860
Ti       9.44843     13.33618     10.71634         0.208901     -1.501861      0.153928
Ti       9.50414      5.64873      2.26894         0.002184     -0.503056     -0.279677
Ti       9.54926      5.70279     14.90091         0.293745     -0.907248     -0.955498
Ti       9.43859      5.71392      6.65279         0.373671     -0.422889      0.507150
Ti       9.54833      5.78529     10.72704        -0.174539      0.375418      0.076362
Ti       9.46217      9.40848      2.17754         0.647010      0.593474      0.575211
Ti       9.48029      9.45512     14.98845         0.074425     -0.841833     -0.985647
Ti       9.51912      9.40427      6.38923         0.011375      0.605688     -0.227340
Ti       9.54188      9.55282     10.82815        -0.156100     -0.449240     -0.883267
O       1.87160      1.79665      0.44419         0.007955     -0.332399      0.370013
O       1.88923      1.69318     13.14066        -0.287897      0.654420      0.561145
O       1.81442     13.38505      0.40853         0.176043     -0.450779      0.309363
O       1.75944     13.35724     13.13490         0.111487      0.052651      1.285903
O      13.19340      1.83371      0.51887         0.245546     -0.016580     -0.269325
O      13.15935      1.78839     13.24198         0.202616      0.261775     -0.087278
O      13.13346     13.29211      0.50759         0.111238     -0.472712      0.840404
O      13.26406     13.25525     13.28011        -0.328880      0.179710      0.278619
O       1.91615      1.89197      4.60521         0.094558      0.072132      0.193100
O       1.88230     13.13860      4.55332         0.155218      0.040055      0.128362
O      13.29443      1.80667      4.56108         0.147644      0.038776      1.144384
O      13.14895     13.34026      4.60442         0.100207     -0.517262      0.975429
O       2.00593      1.83729      8.94628        -0.423981     -0.066932      0.100485
O       1.93366     13.33252      8.87477        -0.110074     -0.068260     -0.499884
O      13.40349      1.94671      8.86711        -0.443911     -0.303252      0.908638
O      13.33171     13.27475      8.84057        -0.241268      0.138144     -0.183614
O       1.86556      5.59079      0.36022        -0.042892      0.144116      1.142508
O       1.78555      5.65996     13.25476         0.353161     -0.125037     -0.378111
O      13.31765      5.72238      0.56396        -0.023439     -0.088510     -0.018798
O      13.22984      5.80427     13.16155         0.005574     -0.513259     -0.088074
O       1.93706      5.68640      4.65069         0.168687     -0.189815     -0.581378
O      13.36448      5.67704      4.73219         0.204836      0.470978      0.002673
O       1.93168      5.74209      9.07511        -0.040936      0.048571      0.128716
O      13.40193      5.55008      8.91258         0.050713      0.825320      0.837934
O       1.82130      9.29503      0.36841         0.325469      0.599998      1.236502
O       1.65759      9.46297     13.23831         0.680118      0.260015      0.601407
O      13.20085      9.42987      0.59937         0.430715      0.434893     -0.102051
O      13.38923      9.49245     13.23708        -0.348622      0.250235     -0.495932
O       2.01015      9.42540      4.61095        -0.220741      0.426969     -0.394974
O      13.37616      9.45910      4.57138         0.136447     -0.173418      1.923493
O       1.82659      9.68960      8.95986         0.637314     -0.838649      0.639286
O      13.46802      9.53673      8.94061        -0.451132     -0.145764     -0.376896
O       5.74382      1.77624      0.28371        -0.096599      0.166296      0.733300
O       5.70068      1.95950     13.14436        -0.328047     -0.215293     -0.221401
O       5.67767     13.20850      0.24337        -0.108008      0.082446      0.557357
O       5.62563     13.40769     13.23919         0.083846     -0.701714      0.008583
O       5.84175      2.01586      4.73276        -0.200088     -0.241348      0.861285
O       5.80861     13.07940      4.66168         0.030202      0.426728      0.859455
O       5.80814      1.85366      8.98950        -0.543192     -0.559663      0.654476
O       5.59908     13.23319      8.92816         0.465094      0.514360     -1.713782
O       5.74617      5.56029      0.27023        -0.024488      0.388691      0.836171
O       5.58496      5.58998     13.29135         0.338347      0.210426     -0.938086
O       5.83035      5.52980      4.81625        -0.735682      0.378071      0.790002
O       5.61171      5.67785      9.04547        -0.051474      0.517799      0.854501
O       5.63847      9.36791      0.16728        -0.057322      0.296920      0.841957
O       5.72626      9.28548     13.13080        -0.073413      0.809587      0.538953
O       5.70173      9.54874      4.70096         0.406619     -0.517469      1.081761
O       5.61235      9.35381      8.93508         0.178491      0.311467      1.400618
O       9.48587      2.08379      0.46831        -0.235258     -0.671798      1.656116
O       9.53551      1.92817     13.12622         0.020784     -0.078853     -0.259340
O       9.38392     13.14224      0.35603         0.107674      0.290850      0.303398
O       9.33854     13.40029     13.34747         0.515937     -0.549235     -0.173604
O       9.55795      1.93975      4.79547        -0.801628     -0.603237      1.024434
O       9.34491     13.28865      4.83817         0.045231      0.142104     -0.386546
O       9.59791      2.03051      8.93017        -0.599707     -0.560371      0.477977
O       9.39248     13.13729      8.93991         0.440197      0.473560      0.409111
O       9.58700      5.60715      0.49140        -0.522206      0.227813      0.751069
O       9.68368      5.71631     13.08590        -0.328416      0.124175      0.521945
O       9.61736      5.78895      4.85038        -0.919999     -0.344956      0.184743
O       9.57043      5.61773      8.92156         0.039659      0.522921      0.486037
O       9.53607      9.29564      0.33520        -0.246794      0.561026      0.850868
O       9.48308      9.31396     13.11155         0.021696      0.476152      1.937951
O       9.44518      9.33038      4.58344        -0.112527      0.180053      1.161389
O       9.51946      9.59198      9.03406         0.513830      0.113788      0.002056
O       3.88583      1.69598      2.75489        -0.553469      0.451904     -0.988715
O       3.84956      1.82933     15.38727        -1.616815     -0.165338     -0.661365
O       3.85614     13.22049      2.59908        -0.063978     -0.317278     -0.890054
O       3.69072     13.40323     15.24420         0.287643     -0.920712      0.192112
O       0.01777      1.75488      2.61143        -0.335428     -0.029003     -0.332468
O      15.10015      1.85406     15.32405        -0.322232     -0.335604      0.034747
O      15.12381     13.18903      2.55880         0.227993     -0.289424      0.001767
O      15.04264     13.36400     15.39194         0.556531      0.105985     -0.030441
O       3.78787      1.86393      6.79920         0.663635      0.236828     -0.110206
O       3.87398     13.25036      6.78119        -0.562469     -0.282192     -0.154144
O       0.05262      1.93531      6.75675        -0.052884     -0.291275     -0.218118
O      15.13046     13.28222      6.65915         1.130696      0.015218     -0.047942
O       3.77311      1.89630     11.17962         0.362784     -0.147269     -0.427116
O       3.75681     13.31822     11.06264        -0.219649      0.031568      0.022746
O      15.14073      1.95101     11.03532         1.134987     -0.829223      0.274330
O      15.13021     13.36459     11.09118         0.213527      0.070424     -0.405256
O       3.90228      5.58669      2.56869        -1.947422      0.327462      0.350896
O       3.77061      5.57803     15.43661        -0.932063     -0.230649     -0.696798
O       0.05736      5.60679      2.49045        -0.456753      0.120607      0.554678
O      15.12164      5.78562     15.37596         0.602678     -0.492062      0.017737
O       3.80229      5.63663      7.01880        -0.592162      0.818389     -0.881581
O       0.12092      5.72349      6.95602        -0.600639      0.213109     -0.435730
O       3.73337      5.80828     11.29775         1.075190     -0.744326     -0.184497
O      15.16716      5.74342     11.25673        -0.146411     -0.186774     -0.374977
O       3.82233      9.41079      2.52666         0.342862     -0.223426     -0.263865
O       3.68256      9.60968     15.15424         1.153881     -0.052412      0.238942
O       0.01568      9.43985      2.62407         0.568112      0.009346     -0.109193
O      15.13337      9.54626     15.45718        -0.336827     -0.444061     -0.203385
O       3.79886      9.51808      6.88219         1.020444      0.073231     -0.140473
O       0.11905      9.66271      6.81815        -0.575185     -0.873714     -0.511202
O       3.73974      9.55179     11.19224         1.530692     -0.073716      0.015163
O       0.01777      9.47457     11.16322         0.513613     -0.000244     -0.073845
O       7.52628      1.99650      2.69994         0.630363     -0.526383     -0.594904
O       7.57956      1.91499     15.25413         0.916485      0.055840      0.138650
O       7.55182     13.15152      2.57381         0.148219      0.306844     -0.288212
O       7.57443     13.33750     15.37265        -0.503802     -0.549677      0.088261
O       7.58745      1.95619      7.04304         0.546516     -0.221854     -0.328440
O       7.60614     13.24849      6.98574        -0.450458      0.260880     -0.020047
O       7.59656      1.92158     11.23529         0.231337     -0.240613     -1.048668
O       7.50911     13.18784     11.20453         1.094342      1.134999     -0.879288
O       7.62518      5.49958      2.62202        -0.390522      0.439956     -0.117240
O       7.67567      5.70341     15.30661        -1.297133      0.137070     -0.142440
O       7.57972      5.53710      7.08549         0.274086      0.605564     -0.675710
O       7.56649      5.72657     11.15921         0.325874      0.283094     -0.345933
O       7.58824      9.33599      2.40023        -0.744660      0.141412     -0.217922
O       7.54021      9.26398     15.36517         0.683387      0.222954     -0.405844
O       7.70300      9.42733      6.96583        -1.182059      0.065023     -0.459085
O       7.59566      9.47248     11.01090        -0.826343     -0.284202      0.230529
O      11.31904      1.86198      2.67273         0.395997     -0.505838     -0.237396
O      11.29650      1.93695     15.39698         0.719549      0.163298     -0.113795
O      11.25482     13.32776      2.73998         0.019653     -0.693318     -0.669165
O      11.28654     13.17843     15.49543         0.609065     -0.118370     -0.190428
O      11.44144      1.83772      6.76702         0.240839      0.037399      0.527323
O      11.43054     13.33590      6.98329        -0.901137     -0.186272     -0.346755
O      11.33472      1.84900     11.05173         0.686208      0.428526     -0.178812
O      11.37733     13.17444     11.14553        -0.180000      0.386413     -0.739029
O      11.41630      5.73194      2.67499        -0.294788     -0.450063     -0.009437
O      11.41741      5.66726     15.40882         0.249423      0.158607     -0.310302
O      11.52712      5.81383      6.89730        -1.064259      0.088295      0.237276
O      11.46555      5.62727     10.96124        -0.268057      0.325736      0.008551
O      11.40619      9.35762      2.55423        -1.755848      0.119365      0.226021
O      11.34793      9.52976     15.34291         0.221058      0.045114     -0.279609
O      11.49612      9.40637      6.72113        -0.542391      0.050850      0.483421
O      11.46762      9.61724     11.14463         0.020979     -0.348765     -0.018377
O       1.94247      3.65604      2.60514         0.223094      0.439163     -0.245020
O       1.76670      3.68548     15.36548         0.296382      1.084842     -0.382546
O       1.89403     15.05504      2.61767         0.214291      0.136425     -0.019708
O       1.83076      0.03068     15.33422        -0.199031     -0.904077      0.245371
O      13.32187      3.70784      2.66964        -0.051661      0.501615     -0.237110
O      13.23211      3.83809     15.36754         0.508746     -0.672799     -0.423428
O      13.27231     15.09098      2.65021        -0.166874      0.385953     -0.293930
O      13.03282      0.00599     15.45304         0.479844     -0.229417     -0.217233
O       1.89120      3.85401      6.82193         0.242830     -0.800289     -0.257216
O       1.99434     15.10852      6.65727        -0.427661      0.809275      0.385271
O      13.37521      3.82411      6.75399        -0.017498     -0.778997      0.122391
O      13.29311      0.00078      6.83857         0.204837     -0.080841     -0.099295
O       1.89817      3.80726     11.07534        -0.035234     -0.792431      0.300473
O       1.95234     15.15784     11.01541        -0.421027      1.368412      0.214140
O      13.36850      3.78731     11.17012        -0.663264      0.197181     -0.520645
O      13.20971     15.16933     11.11946         0.043350      0.252969     -0.845370
O       1.94819      7.45092      2.62718         0.044880      0.681907     -0.209602
O       1.96644      7.56328     15.29122        -0.647321      0.122479     -0.542789
O      13.29435      7.54963      2.66785         0.770284     -0.653052      0.150050
O      13.23477      7.65181     15.41680         0.019787     -0.020327     -0.390284
O       1.95275      7.61354      6.67620        -0.028549      0.226028      0.661787
O      13.46119      7.63308      6.91828         0.233462      0.061303     -0.076450
O       1.90804      7.57373     11.13034        -0.172575      1.730465      0.062648
O      13.34275      7.66581     11.07324        -0.591768     -1.505267     -0.109566
O       1.89163     11.33619      2.47059         0.170716     -1.285197     -0.006426
O       1.73685     11.41801     15.39886         0.136312      0.644839     -0.267418
O      13.16516     11.31918      2.76781         0.298222      1.048661     -0.490237
O      13.25239     11.42960     15.49335        -0.327179     -0.740464     -0.350290
O       1.97775     11.41960      6.79611         0.096142     -0.140326     -0.078051
O      13.31125     11.34689      6.76040        -0.420361      0.608935     -0.170365
O       1.84686     11.45704     11.07359         0.103358      0.027212      0.231892
O      13.38824     11.37039     11.10512        -0.297279      1.417947      0.008948
O       5.59068      3.73194      2.43471         0.233193     -1.773168      0.273533
O       5.61228      3.76086     15.42260         0.563063     -0.267716     -0.612635
O       5.74385     15.09653      2.39186         0.440004     -0.482739      0.402933
O       5.77575     15.18729     15.22429        -0.213121     -0.386377      0.341048
O       5.62960      3.76181      7.05620         0.087099     -0.257611     -0.438273
O       5.70633     15.14523      6.73416         0.555779      0.567807      0.355265
O       5.69940      3.79606     11.05014        -0.251353     -0.066118      0.290735
O       5.70478     15.18502     11.04581         0.091040      0.354701      0.009347
O       5.71033      7.41655      2.37572         0.195020      1.548234      0.585630
O       5.43345      7.54350     15.28969         0.410156      0.291615     -0.369279
O       5.70059      7.55450      6.91603         0.070964     -0.033822     -0.244422
O       5.64203      7.59564     11.15409        -0.118641      0.121136     -0.130722
O       5.69011     11.26627      2.44597         0.389291      0.000259     -0.690752
O       5.72507     11.35022     15.38936        -0.370269     -0.204409     -0.941836
O       5.81178     11.34870      6.94533        -0.299002     -0.225923     -0.313082
O       5.74897     11.48057     11.12969        -0.960008     -1.444736     -0.085028
O       9.61873      3.79042      2.89067        -0.842811      0.029491     -1.265621
O       9.50821      3.83988     15.40849        -0.298509     -0.913023     -0.836186
O       9.42247     15.13410      2.65255        -0.518618      0.588181     -0.503821
O       9.54630      0.03108     15.50318        -0.511599     -0.154704     -0.635320
O       9.72939      3.81299      6.83820        -0.578260      0.251209     -0.218341
O       9.49469      0.00589      6.91851        -0.205844     -0.178078      0.484881
O       9.47382      3.90112     11.10669         0.150007     -1.455496     -0.203578
O       9.43262     15.11849     11.06416         0.026150      1.227678     -0.510577
O       9.44911      7.52145      2.67446        -0.051043     -0.209911     -0.464318
O       9.60202      7.44916     15.41451        -0.330012      2.419124     -0.111848
O       9.52627      7.60682      7.01420         0.016691     -0.619301     -0.118105
O       9.59757      7.66211     11.06253        -0.013923     -1.209179     -0.201074
O       9.50818     11.30467      2.55812         0.014587      0.383251     -0.172755
O       9.35710     11.30657     15.29090        -0.143443     -0.441771      0.048717
O       9.55211     11.34732      6.74184         0.143152     -0.187316      0.302632
O       9.44142     11.36158     11.29308         0.279922      1.513212     -0.251779
