  # total energy = -7882.26520950 
CRSYTAL
PRIMVEC
    15.3600000000000000    0.0000000000000000    0.0000000000000000
     0.0000000000000000   15.3600000000000000    0.0000000000000000
     0.0000000000000000    0.0000000000000000    17.440000000000000
PRESSURE
0.882438 0.418947 -0.971387 0.107328 0.513667 -0.0185
PRIMCOORD
320 1
Pb       3.73531      3.84201      4.28822         0.771860     -0.099168      0.443883
Pb       3.81177      3.84151     17.36232         0.159751     -0.484718     -0.601924
Pb       3.81263      0.02671      4.25247         0.446893     -0.245679     -0.000904
Pb       3.76451      0.06122      0.04656         0.477216      0.323635     -0.635051
Pb      15.32202      3.78092      4.36588        -0.057671      0.445380     -0.579490
Pb      15.35112      3.90836     17.39712         0.132099      0.024386      0.144532
Pb      15.28269     15.27166      4.29930        -0.082075      0.521765     -0.394015
Pb      15.27241     15.29180      0.02130        -0.225859     -0.101619     -0.146462
Pb       3.79686      3.75866      8.75644         0.116717     -0.137306     -0.479117
Pb       3.86593     15.32305      8.71123         0.037630      0.028181     -0.431494
Pb       0.00794      3.73615      8.69973         0.209067      0.561120     -0.517493
Pb      15.34127      0.03893      8.65848         0.211236     -0.131095     -0.185064
Pb       3.65117      3.83891     13.02734         0.985237     -0.663367      1.221869
Pb       3.76560     15.24660     13.09348         0.591555      0.604042      0.375007
Pb      15.31273      3.80615     13.04024         0.311416      0.440948      0.166015
Pb       0.03989      0.02818     13.01450        -0.348620     -0.570814     -0.001334
Pb       3.82378      7.62653      4.27861        -0.006017      0.305940      0.259588
Pb       3.76585      7.65684     17.37253         0.066207     -0.136874      0.273653
Pb      15.34543      7.67530      4.39103         0.147108     -0.178358     -0.838098
Pb      15.20343      7.71074     17.33384         0.389250      0.087427      0.045938
Pb       3.93938      7.60754      8.77147        -0.864488      0.225148     -0.038040
Pb       0.06009      7.61711      8.73070         0.081277     -0.278218     -0.586514
Pb       3.76841      7.66603     13.00814         0.441366      0.084491     -0.307047
Pb       0.04954      7.64659     13.02596        -0.363778      0.062925     -0.143712
Pb       3.75731     11.51874      4.23573         0.108366      0.160313      0.171348
Pb       3.92225     11.49150     17.43322        -0.380676      0.129362     -0.120853
Pb      15.28976     11.56226      4.32493         0.756540     -0.641629     -0.582937
Pb      15.31509     11.53931     17.36585         0.484432     -0.522478      0.208474
Pb       3.76831     11.54573      8.63493         0.420627     -0.042549      0.165825
Pb      15.29140     11.39546      8.65063         0.442002      0.176965     -0.320456
Pb       3.79777     11.54320     13.12238         0.631970     -0.207781     -0.213074
Pb      15.31683     11.50806     13.14966         0.090283      0.179180     -0.220552
Pb       7.69375      3.76899      4.42906        -0.541249      0.476008     -0.604328
Pb       7.63795      3.90739     17.32981         0.196180     -0.437040     -0.266318
Pb       7.72449      0.09735      4.24750        -0.955239     -0.518990      0.627343
Pb       7.71363      0.02041     17.40604        -0.282505      0.346771     -0.275236
Pb       7.72730      3.66878      8.76607        -0.737999      0.719676      0.165543
Pb       7.62403     15.19940      8.63459         0.241536      0.229565     -0.083966
Pb       7.67722      3.80907     13.19730        -0.266177     -0.580927     -0.295859
Pb       7.57096     15.35223     13.13300         0.418573     -0.020384     -0.309413
Pb       7.61669      7.63373      4.31093         0.395494     -0.167806     -0.160429
Pb       7.74163      7.64210     17.40909         0.159117      0.360653     -0.336282
Pb       7.55424      7.69688      8.67637         0.533515     -0.086565     -0.186090
Pb       7.52969      7.62718     12.99641         0.262195      0.206907     -0.300849
Pb       7.67283     11.52821      4.34185         0.017606      0.059253     -0.378903
Pb       7.76214     11.50560      0.07924        -0.167949     -0.716854     -0.544368
Pb       7.51450     11.44658      8.65542         0.645023      0.060040     -0.165318
Pb       7.62666     11.39708     13.10355         0.359597      0.156769     -0.353303
Pb      11.44268      3.81618      4.37740         0.277398      0.126952     -0.362405
Pb      11.60454      3.83046     17.35860        -0.667296      0.246106     -0.161993
Pb      11.38226     15.35462      4.28149         0.474921      0.184586     -0.006646
Pb      11.58087     15.33904     17.38084         0.022616     -0.208746     -0.083259
Pb      11.44923      3.82581      8.72962         0.111090      0.023122     -0.072273
Pb      11.50726     15.22969      8.65047        -0.268230      0.296852     -0.327668
Pb      11.54692      3.81930     13.09377        -0.390523     -0.092602     -0.034589
Pb      11.58208     15.34017     12.93207        -0.118445     -0.041968      0.316905
Pb      11.41860      7.79218      4.30660         0.272722     -1.153412      0.199070
Pb      11.57797      7.58968     17.40897        -0.374105      0.219382     -0.650750
Pb      11.41708      7.60815      8.72797        -0.191788      0.007998     -0.054810
Pb      11.52918      7.72512     12.89945        -0.596166      0.016974      0.462702
Pb      11.51556     11.47328      4.43268        -0.331648      0.133495     -0.881640
Pb      11.53942     11.50219      0.00368        -0.030272     -0.270640     -0.330613
Pb      11.53667     11.53062      8.71030        -0.501596     -0.012794     -0.562418
Pb      11.47006     11.44792     12.99467        -0.711207      0.265507     -0.121703
Ti       1.91793      1.93647      2.23639         0.011701      0.508084     -0.116102
Ti       1.81713      1.90377     15.43920         1.615010      0.895265      1.203531
Ti       1.89412     13.48742      2.30224         0.537251     -0.670514     -0.826422
Ti       1.98971     13.44732     15.39576        -0.354496      0.197407      0.164269
Ti      13.48803      1.87743      2.29048        -0.860168     -0.187596      0.238468
Ti      13.42724      1.91967     15.37008        -0.035826     -0.821432     -0.062924
Ti      13.38568     13.36691      2.34642         0.306884      0.924633     -1.286545
Ti      13.46885     13.36289     15.36043        -0.153020      0.829627      0.008875
Ti       1.85150      1.84603      6.61415         1.082660      0.747889      1.073442
Ti       1.90115     13.39968      6.66700         1.231100     -0.074378     -0.644354
Ti      13.38358      1.94739      6.64016         0.084616     -0.186156     -0.844268
Ti      13.51714     13.44842      6.58399        -1.220674      0.303857     -0.275879
Ti       1.84766      1.90612     11.03431         1.818688      0.215704     -0.655749
Ti       1.99879     13.45762     11.01179        -0.987144      0.602050      0.929092
Ti      13.45428      1.95517     10.97789        -0.482170     -0.699377      0.690669
Ti      13.48692     13.36801     11.00718         0.100138      1.605290      2.355459
Ti       1.93614      5.73923      2.31818        -1.384766      0.457468      0.814662
Ti       1.88364      5.78838     15.38917         0.163313     -0.570330     -0.636545
Ti      13.35791      5.73731      2.33297         1.276569     -0.036029     -0.202961
Ti      13.43536      5.67989     15.27519        -0.533827      1.761300      0.121920
Ti       1.98113      5.71075      6.57739        -1.470332     -0.197559      1.035281
Ti      13.45840      5.74196      6.72114        -0.033266      0.471770     -1.505433
Ti       1.94901      5.72245     11.03478        -0.496169      0.255452     -0.168817
Ti      13.40106      5.75894     11.09404         0.470007      0.001553      0.087033
Ti       1.98513      9.55501      2.28216        -0.741616     -0.103197      2.084080
Ti       1.99873      9.58103     15.34435        -1.016639      0.436089      2.114758
Ti      13.46153      9.51409      2.30793         0.583073      0.418627      0.594747
Ti      13.43164      9.61848     15.30885         0.133747     -1.620469      0.595898
Ti       1.93379      9.53264      6.66487        -0.215907      0.414441     -0.403012
Ti      13.40939      9.55661      6.64228         0.544696     -0.357528      0.115667
Ti       1.86948      9.73773     11.06228         0.716928     -1.154728     -0.169111
Ti      13.39556      9.61759     10.97007         0.379527      0.207300      1.381237
Ti       5.71055      1.98478      2.27999         0.151199     -0.868673     -0.541656
Ti       5.78417      1.87783     15.35439        -1.820800      1.063078     -0.633864
Ti       5.75651     13.46409      2.24605        -1.103450      0.316048     -0.297433
Ti       5.82397     13.41033     15.50333        -0.981194      0.277315     -0.952327
Ti       5.69317      1.94795      6.65054         0.431119      0.013502      0.100684
Ti       5.75961     13.42842      6.55576         0.090801      0.415563      0.945026
Ti       5.73793      1.85923     11.11885        -0.374680      0.654270      0.359622
Ti       5.84918     13.36515     11.10000        -0.770552      0.235093      0.283346
Ti       5.75058      5.77366      2.28072         0.225743     -0.410288      1.391155
Ti       5.76342      5.75251     15.32717        -0.548310     -0.422516     -0.548499
Ti       5.61677      5.81833      6.75299         2.358293     -1.604879     -0.715236
Ti       5.73644      5.60734     11.07800         0.266781      0.628427      1.196486
Ti       5.75971      9.61634      2.31861         0.424220      0.081152      1.031911
Ti       5.78921      9.56913     15.40474         0.375351     -0.528109     -0.369368
Ti       5.64894      9.65309      6.53149         0.863734     -0.121586      0.301032
Ti       5.71156      9.57397     10.97081        -0.026095      0.233155      1.459383
Ti       9.55172      1.94445      2.28801         0.507489      1.004384     -1.397617
Ti       9.65847      1.85110     15.40161        -0.583173      0.635126     -1.127276
Ti       9.55395     13.48597      2.23264         0.428138     -0.843881     -0.384984
Ti       9.58027     13.34997     15.40408         0.860804      0.266970     -0.488697
Ti       9.55302      1.87592      6.76943         0.251008     -0.971187     -0.194437
Ti       9.63249     13.33711      6.60794        -0.765197      1.112205      0.057809
Ti       9.65229      1.88866     11.08805        -1.139209     -0.132893     -0.973888
Ti       9.57933     13.43113     11.02227        -0.480176     -1.227034      0.226714
Ti       9.62912      5.78114      2.28912        -0.339368      0.013722     -0.294358
Ti       9.54415      5.79980     15.24904         1.211365     -0.207865     -0.040698
Ti       9.55597      5.69600      6.71992        -0.255426      1.430405     -1.045296
Ti       9.56037      5.71344     11.12919        -0.566284      0.717824      0.078246
Ti       9.61641      9.64479      2.35987        -0.031768     -0.536488     -0.624029
Ti       9.64587      9.58299     15.34241        -0.226243     -0.742108      0.082759
Ti       9.63893      9.57099      6.53324        -1.271636      0.203307     -0.066075
Ti       9.50566      9.56516     10.92121        -0.289730      0.063839      1.271154
O       2.07256      1.98073      0.45809        -0.580740     -0.118266      0.605364
O       1.84719      2.16681     13.74269        -0.404767     -0.778117     -1.604776
O       1.96546     13.57685      0.48068        -0.137226     -0.415710      1.336273
O       1.86568     13.57104     13.60387         0.180629     -0.452962      0.680600
O      13.32091      1.72019      0.55062         0.018307      0.765949     -1.008623
O      13.48532      2.06048     13.59383        -0.163259     -0.630115      0.581986
O      13.59339     13.33728      0.53499        -0.500192      0.224898      0.427903
O      13.57036     13.51290     13.59437        -0.116641     -0.298652      0.404613
O       1.82891      1.99844      4.90237         0.026413     -0.462923     -1.398371
O       2.05917     13.30073      4.86772        -0.966698      0.605342      0.799308
O      13.50215      1.92338      4.82494        -0.037781     -0.006712      0.960589
O      13.55607     13.50815      4.76090        -0.505821     -0.327572      1.030021
O       1.96811      1.84556      9.22541        -0.430400      0.237176      0.930053
O       1.98159     13.56484      9.25900        -0.103771     -0.390620      0.200366
O      13.47960      2.00156      9.22958        -0.107005     -0.137499     -0.619828
O      13.42702     13.42629      9.29302        -0.114175     -0.249777     -1.375964
O       1.88207      5.76406      0.58914        -0.032989     -0.075194     -1.265821
O       1.88882      5.71386     13.57276        -0.109723      0.464465      1.364446
O      13.39598      5.84859      0.51098        -0.257388     -0.596800      0.773213
O      13.50530      5.68205     13.51149        -0.285465      0.211984     -0.178160
O       1.91142      5.76142      4.82042         0.218252     -0.220392      0.337170
O      13.31192      5.74416      4.90836         0.536468     -0.242296      1.329367
O       2.05486      5.67902      9.25783        -0.518184      0.107658      0.273048
O      13.46736      5.73218      9.33575        -0.229288      0.126956     -0.488386
O       1.98590      9.45365      0.59136         0.089482      0.153780     -1.523660
O       1.93501      9.53679     13.62437         0.073136      0.181200     -1.385556
O      13.58187      9.55910      0.56749        -0.477205     -0.112439     -0.261739
O      13.41701      9.47440     13.57450        -0.031352      0.791433     -0.776655
O       2.04107      9.61115      4.90670        -0.539973     -0.069341      0.440041
O      13.42730      9.54924      4.86979        -0.091267      0.315256      0.105226
O       1.98003      9.73531      9.28793        -0.684191     -0.076666      0.585047
O      13.57515      9.79582      9.24460        -0.367618     -0.294699     -0.977905
O       5.64817      1.99929      0.48182         0.517148     -0.107812      0.941201
O       5.83290      2.11649     13.55939         0.126703     -1.315378      0.585585
O       5.62251     13.56863      0.45631         0.379445     -0.472998      0.064121
O       5.91685     13.31981     13.68463        -0.320127      0.201037      1.092746
O       5.89106      1.82660      4.87392        -0.173897      0.492128      0.541694
O       5.79495     13.35927      4.83425        -0.227361      0.182283     -0.614762
O       5.56749      1.95851      9.32005         0.661618     -0.295901      0.951256
O       5.84185     13.56996      9.35415        -0.166359     -0.448351     -0.606527
O       5.77392      5.78308      0.55562         0.262287     -0.003047     -0.365461
O       5.75147      5.78591     13.53381         0.178708     -0.135321      0.587369
O       5.70328      5.71916      4.99257         0.239844      0.202045     -0.009000
O       5.52434      5.68954      9.35505         0.097923      0.049420     -1.024610
O       5.88801      9.47009      0.61260        -0.206076     -0.047517     -1.497479
O       5.68726      9.64484     13.63882         0.072847     -0.010915      0.138116
O       5.69689      9.66114      4.76671         0.230224      0.019953      0.580993
O       5.75097      9.73369      9.24042        -0.119904     -0.579807     -0.988560
O       9.35469      1.97191      0.45038         0.943342     -0.070083      1.502592
O       9.82005      1.83646     13.62007        -0.676671     -0.016871      0.211096
O       9.65670     13.48259      0.42618        -0.466603     -0.299192      1.176496
O       9.46438     13.23082     13.63544         0.436733      0.472481      0.817264
O       9.64666      1.88774      4.96887        -0.506326      0.084168      0.108812
O       9.65111     13.40813      4.84630         0.102307     -0.046198     -0.901123
O       9.61676      1.96171      9.22518         0.396128      0.032086      1.140879
O       9.56099     13.28022      9.24926         0.368086      0.405616     -0.193700
O       9.62890      5.74346      0.49822         0.106137     -0.218242      0.279054
O       9.55228      5.98500     13.46342        -0.155412     -0.433060      0.792031
O       9.73062      5.82431      4.91947        -0.681292     -0.816764      1.360297
O       9.63858      5.79947      9.37770         0.417407     -0.152524     -1.669664
O       9.66626      9.57698      0.58575        -0.459432      0.343252     -0.057493
O       9.65093      9.64978     13.55976         0.187978     -0.375310      0.520617
O       9.69314      9.64676      4.67833         0.010754      0.223853      1.526504
O       9.44952      9.58294      9.17164         0.355914      0.055450     -0.582045
O       3.87037      1.89097      2.71637        -0.331878      0.168872      0.171953
O       3.82283      1.96011     15.74193        -0.304762      0.445772      0.232794
O       3.82830     13.49916      2.73923        -0.279387      0.062579     -0.221083
O       3.85925     13.30630     15.66307         0.315934      0.337631      0.275679
O       0.01999      1.89486      2.48103         1.112241      0.554509      0.581670
O      15.24204      1.83380     15.90568         0.514884      0.261764     -0.206789
O      15.32166     13.40965      2.76361         1.380968     -0.010445     -0.095416
O       0.08621     13.32416     15.85712        -0.553861      0.624659     -0.476276
O       3.84211      1.94523      6.94689        -0.049184     -0.270135      0.183746
O       3.79701     13.41767      7.06915         0.938302      0.396301     -0.017725
O       0.00003      1.89431      7.04663        -0.656337     -0.042152      0.350610
O      15.35342     13.50631      6.98940        -0.091940     -0.033440      0.142360
O       3.80113      1.99987     11.50406         0.411124     -0.103383     -0.257711
O       3.84339     13.43569     11.49292         0.134941     -0.233010      0.035807
O       0.00152      1.92861     11.35041        -0.041638     -0.132439      0.117961
O       0.02326     13.63446     11.43537         0.381800     -0.744355     -0.421309
O       3.79185      5.77975      2.67789         1.979262     -0.252510      0.115396
O       3.82253      5.72663     15.80084        -0.152053      0.300859     -0.317668
O       0.00314      5.71962      2.70427        -0.398814     -0.010933      0.323492
O      15.29645      5.69222     15.72935         0.803540      0.349868      0.259318
O       3.81849      5.78259      7.08856        -0.785394     -0.330703      0.216055
O       0.04719      5.77134      7.03402        -0.240445     -0.056106      0.255440
O       3.77873      5.56701     11.48532         0.758768      0.498193     -0.252347
O      15.28497      5.81381     11.46592         0.680584     -0.215225     -0.356489
O       3.88375      9.56309      2.72211        -0.146416     -0.121480     -0.284446
O       3.89386      9.45940     15.80623        -0.102126      0.375461      0.099248
O       0.11057      9.54776      2.74000        -1.300557      0.237029      0.262662
O      15.35935      9.54615     15.80662         0.582526      0.371247     -0.415967
O       3.78090      9.59618      7.02114         1.290123      0.344432      0.327248
O      15.31996      9.64667      7.01140         0.637956      0.035253      0.346437
O       3.81985      9.70719     11.43930        -0.692489     -0.075864      0.103714
O      15.31155      9.58198     11.50176         1.393949      0.455171     -0.324809
O       7.70389      1.93774      2.81319         0.159386      0.534679     -0.471735
O       7.60590      1.89064     15.70472         1.748584     -0.234465      0.327590
O       7.60312     13.44399      2.56660         1.480168     -0.255835      0.090991
O       7.71781     13.51617     15.88573        -0.427331     -0.677015      0.052673
O       7.63497      1.92910      7.29105         0.832947     -0.361055     -0.958470
O       7.71710     13.33649      6.88004        -0.621465      0.471836      0.688042
O       7.78964      1.82180     11.54001        -0.673758      0.227930     -0.299186
O       7.64248     13.33304     11.44626         1.059166      0.788308      0.228915
O       7.76692      5.69397      2.75433        -1.437262      0.132399      0.030172
O       7.71400      5.70277     15.67054        -0.424449      0.177666      0.275724
O       7.56844      5.81717      7.28112         1.472451     -0.133316     -0.657020
O       7.66702      5.91541     11.26157        -1.481313     -0.640830      0.592298
O       7.72753      9.71691      2.71770        -0.567612     -0.466948      0.224906
O       7.70746      9.58339     15.73845         0.268177     -0.072298      0.333910
O       7.63260      9.62144      6.86850         0.154726      0.080555      0.120623
O       7.61723      9.55341     11.38032        -0.160076     -0.147448     -0.013844
O      11.59079      1.77074      2.72977        -1.865754      0.468584     -0.082270
O      11.51931      1.81993     15.74367         0.540176      0.531557      0.712458
O      11.50383     13.48389      2.55321        -0.442041      0.474129      0.489195
O      11.57351     13.25072     15.78707        -0.380963      0.391349     -0.237429
O      11.51102      1.98600      7.02079         0.143265      0.014991      0.337166
O      11.51629     13.47454      6.96609         1.271249     -0.335790      0.526562
O      11.53613      1.92992     11.44917         0.219928     -0.036391     -0.200043
O      11.46826     13.47107     11.43700         1.199231     -0.731690     -0.190772
O      11.50807      5.84760      2.73818         0.496889     -0.558904     -0.161002
O      11.56875      5.81313     15.60092        -0.647726     -0.530088      0.456236
O      11.46322      5.92222      7.18594         0.357950     -1.142821     -0.081496
O      11.43971      5.77526     11.48740         1.879061      0.093295     -0.083542
O      11.51852      9.44532      2.65858         0.854672      1.071577      0.054145
O      11.54332      9.62611     15.81147        -0.003302     -0.098626     -0.076558
O      11.54022      9.65277      7.02273        -0.251432     -0.136076      0.142591
O      11.48774      9.69324     11.25984         0.361188     -0.153510      0.032248
O       2.05456      3.81932      2.79264        -1.028362     -0.332657     -0.679513
O       1.79444      3.85612     15.85710         0.193514      0.708031      0.169943
O       2.00084      0.07779      2.66344        -0.598240     -1.008098      0.194228
O       2.05570      0.06779     15.70419        -0.742309     -1.605161      0.180753
O      13.44463      3.80397      2.64101        -0.358150      0.624986      0.125114
O      13.35093      3.81097     15.79724         0.348376     -0.339663      0.062364
O      13.59813      0.00327      2.59035        -0.249586     -1.075861      0.800990
O      13.37505     15.26004     15.85333         0.447823      0.182546     -0.388246
O       1.90088      3.80351      6.98011         0.089236      0.413896      0.285590
O       1.98615     15.34913      7.11338        -0.536258     -0.301298     -0.374892
O      13.49621      3.84531      7.09934        -0.295735      0.145673      0.019313
O      13.39209      0.04968      7.03085         0.233830     -0.705479      0.190009
O       1.86489      3.83014     11.52894        -0.624853     -0.569088     -0.842759
O       2.08947      0.05446     11.53976        -1.072458     -0.165022     -0.505768
O      13.41961      3.81570     11.47875        -0.089579      0.445432     -0.457884
O      13.48404      0.03816     11.41753        -0.477433      0.056905     -0.112616
O       2.01284      7.63787      2.82829        -0.558297      0.306162     -0.422307
O       1.97689      7.71716     15.86681        -0.629150     -1.292833     -0.587180
O      13.46197      7.66996      2.75198         0.308856     -0.277922     -0.040593
O      13.45758      7.68609     15.66086         0.018505     -0.564465      0.477841
O       1.98212      7.66501      7.09191        -0.508885     -0.127131      0.074300
O      13.57288      7.65875      7.09640        -0.612588      0.472135      0.253707
O       2.02792      7.60072     11.35395        -0.487019      1.256514      0.203440
O      13.48926      7.80200     11.37105        -0.718554     -1.452748     -0.174456
O       1.98309     11.53118      2.73559        -0.387974      0.316506     -0.662897
O       2.02038     11.46675     15.85132        -0.168220     -0.083812     -0.482936
O      13.39079     11.51335      2.62098         0.092596     -0.886157      0.826598
O      13.49410     11.44644     15.74318         0.209171      1.032608      0.093615
O       2.01772     11.52772      7.15571        -1.209944     -0.012861     -0.394256
O      13.46922     11.56799      7.02906        -0.172396      0.106793     -0.204879
O       1.90445     11.59363     11.62764        -0.498116     -0.289453     -0.856570
O      13.55014     11.56145     11.56786        -0.334267     -0.341609     -0.660653
O       5.75030      3.80973      2.75425         0.152936      1.027067     -0.042851
O       5.76626      3.82082     15.77914         0.225513      0.922246      0.181076
O       5.78153      0.02773      2.64382         0.071478      0.063407      0.283745
O       5.65355      0.03593     15.77563         0.500769     -1.542479     -0.145594
O       5.84402      3.82618      7.15927        -0.651698     -0.018372     -0.267494
O       5.87106     15.32881      7.06934        -0.654144     -0.020105     -0.113288
O       5.90741      3.76952     11.64781        -0.277060      0.565916     -1.438665
O       5.76913     15.34396     11.56674        -0.099053      0.103568     -0.080282
O       5.80255      7.66195      2.82733         0.114266     -0.535405     -0.504753
O       5.92428      7.61430     15.63644        -0.538158      0.192443      0.646505
O       5.68323      7.70713      7.09504        -0.002400      0.732412      0.046323
O       5.58050      7.64593     11.42421         0.136074      0.144492     -0.311884
O       5.68990     11.53423      2.49482         0.202028      0.235309      0.298521
O       5.74240     11.43051     15.95624         0.588631      0.943368     -0.135163
O       5.75623     11.56267      7.10684        -0.566187     -0.704546     -0.484408
O       5.83230     11.48473     11.43920        -0.708156     -0.049584     -0.009172
O       9.67206      3.87236      2.77407         0.122626     -1.369708     -0.131656
O       9.59330      3.84647     15.55968         0.355823      0.027092      0.581619
O       9.47138      0.04106      2.69149         0.769170     -0.404057     -0.322321
O       9.66145     15.32525     15.72581        -0.276300     -0.519827      0.260105
O       9.60575      3.82709      7.08150        -0.167352      0.478248      0.049149
O       9.66251     15.33260      7.02743        -0.359682      0.268021      0.428569
O       9.55790      3.84359     11.53758         0.208217     -0.785768     -0.233401
O       9.60564     15.27500     11.35514         0.111945      0.998838      0.258769
O       9.60490      7.64447      2.65383        -0.537297      0.619204      0.348858
O       9.65964      7.63692     15.91713        -0.365288      0.347300     -0.677369
O       9.60492      7.74183      6.86550        -0.124529     -0.183485      0.797326
O       9.50247      7.67601     11.35715         0.986821      1.202422      0.147232
O       9.65019     11.57711      2.69449         0.079777      0.453760     -0.103837
O       9.60148     11.40582     15.81844        -0.290973      1.371670      0.408972
O       9.62516     11.52711      6.95041         0.432643     -1.429800      0.151404
O       9.53070     11.47478     11.46546         0.337984     -0.066463     -0.239514
